Circuit: * D:\00 - ITBA\Electrónica 4\TPF\TP-FINAL\Simulation\OTROS\Circuito ideal\sch.asc

Direct Newton iteration for .op point succeeded.
Heightened Def Con from 5.01993e-06 to 5.01993e-06
Heightened Def Con from 5.01993e-06 ++++++++++++++++++++to 5.01994e-06
Heightened Def Con from 2.50199e-05 to 2.50199e-05
Heightened Def Con from 2.50199e-05 ++++++++++++++++++++to 2.50199e-05
Heightened Def Con from 4.50199e-05 ++++++++++++++++++++to 4.502e-05
Heightened Def Con from 6.50199e-05 ++++++++++++++++++++to 6.502e-05
Heightened Def Con from 8.50199e-05 ++++++++++++++++++++to 8.50199e-05
Heightened Def Con from 8.50199e-05 to 8.50201e-05
Heightened Def Con from 0.00010502 ++++++++++++++++++++to 0.00010502
Heightened Def Con from 0.00012502 ++++++++++++++++++++to 0.00012502
Heightened Def Con from 0.00014502 ++++++++++++++++++++to 0.00014502
Heightened Def Con from 0.00016502 ++++++++++++++++++++to 0.00016502
Heightened Def Con from 0.00018502 ++++++++++++++++++++to 0.00018502
Heightened Def Con from 0.00020502 ++++++++++++++++++++to 0.00020502
Heightened Def Con from 0.00022502 ++++++++++++++++++++to 0.00022502
Heightened Def Con from 0.00024502 ++++++++++++++++++++to 0.000245021
Heightened Def Con from 0.00026502 ++++++++++++++++++++to 0.00026502
Heightened Def Con from 0.00028502 ++++++++++++++++++++to 0.00028502
Heightened Def Con from 0.00030502 ++++++++++++++++++++to 0.00030502
Heightened Def Con from 0.00032502 ++++++++++++++++++++to 0.00032502
Heightened Def Con from 0.00034502 ++++++++++++++++++to 0.00034502
Heightened Def Con from 0.00034502 to 0.000345022
Heightened Def Con from 0.00036502 ++++++++++++++++++++to 0.000365021
Heightened Def Con from 0.00038502 to 0.00038502
Heightened Def Con from 0.00038502 ++++++++++++++++++++to 0.000385021
Heightened Def Con from 0.00040502 ++++++++++++++++++++to 0.00040502
Heightened Def Con from 0.00042502 to 0.00042502
Heightened Def Con from 0.00042502 ++++++++++++++++++++to 0.00042502
Heightened Def Con from 0.00044502 ++++++++++++++++++++to 0.00044502
Heightened Def Con from 0.00046502 ++++++++++++++++++++to 0.000465021
Heightened Def Con from 0.00048502 ++++++++++++++++++++to 0.00048502
Heightened Def Con from 0.00050502 to 0.00050502
Heightened Def Con from 0.00050502 ++++++++++++++++++++to 0.00050502
Heightened Def Con from 0.00052502 ++++++++++++++++++++to 0.00052502
Heightened Def Con from 0.00054502 ++++++++++++++++++++to 0.000545021
Heightened Def Con from 0.00056502 ++++++++++++++++++++to 0.000565021
Heightened Def Con from 0.00058502 ++++++++++++++++++++to 0.00058502
Heightened Def Con from 0.00060502 ++++++++++++++++++++to 0.00060502
Heightened Def Con from 0.00062502 +++++++++++++++++++++to 0.00062502
Heightened Def Con from 0.00064502 ++++++++++++++++++++to 0.000645021
Heightened Def Con from 0.00066502 +++++++++++++++++++++to 0.00066502
Heightened Def Con from 0.00068502 ++++++++++++++++++++to 0.000685021
Heightened Def Con from 0.00070502 +++++++++++++++++++++to 0.00070502
Heightened Def Con from 0.00072502 +++++++++++++++++++++to 0.00072502
Heightened Def Con from 0.00074502 +++++++++++++++++++++to 0.000745021
Heightened Def Con from 0.00076502 +++++++++++++++++++++to 0.00076502
Heightened Def Con from 0.00078502 to 0.000785022
Heightened Def Con from 0.00080502 +++++++++++++++++++++to 0.00080502
Heightened Def Con from 0.00082502 +++++++++++++++++++++to 0.00082502
Heightened Def Con from 0.00084502 +++++++++++++++++++++to 0.00084502
Heightened Def Con from 0.00086502 +++++++++++++++++++++to 0.000865021
Heightened Def Con from 0.00088502 +++++++++++++++++++++to 0.000885021
Heightened Def Con from 0.00090502 +++++++++++++++++++++to 0.000905021
Heightened Def Con from 0.00092502 +++++++++++++++++++++to 0.00092502
Heightened Def Con from 0.00094502 ++++++++++++++++++++to 0.00094502
Heightened Def Con from 0.00094502 to 0.000945022
Heightened Def Con from 0.00096502 ++++++++++++++++++++to 0.00096502
Heightened Def Con from 0.00096502 to 0.000965022
Heightened Def Con from 0.00098502 +++++++++++++++++++++to 0.00098502
Heightened Def Con from 0.00100502 +++++++++++++++++++++to 0.00100502
Heightened Def Con from 0.00102502 +++++++++++++++++++++to 0.00102502
Heightened Def Con from 0.00102502 to 0.00102502
Heightened Def Con from 0.00104502 +++++++++++++++++++++to 0.00104502
Heightened Def Con from 0.00106502 +++++++++++++++++++++to 0.00106502
Heightened Def Con from 0.00108502 +++++++++++++++++++++to 0.00108502
Heightened Def Con from 0.00110502 to 0.00110502
Heightened Def Con from 0.00110502 +++++++++++++++++++++to 0.00110502
Heightened Def Con from 0.00112502 ++++++++++++++++++++to 0.00112502
Heightened Def Con from 0.00112502 to 0.00112502
Heightened Def Con from 0.00114502 ++++++++++++++++++++to 0.00114502
Heightened Def Con from 0.00114502 to 0.00114502
Heightened Def Con from 0.00116502 +++++++++++++++++++++to 0.00116502
Heightened Def Con from 0.00116502 to 0.00116502
Heightened Def Con from 0.00118502 +++++++++++++++++++++to 0.00118502
Heightened Def Con from 0.00118502 to 0.00118502
Heightened Def Con from 0.00120502 +++++++++++++++++++++to 0.00120502
Heightened Def Con from 0.00120502 to 0.00120502
Heightened Def Con from 0.00122502 +++++++++++++++++++++to 0.00122502
Heightened Def Con from 0.00122502 to 0.00122502
Heightened Def Con from 0.00124502 to 0.00124502
Heightened Def Con from 0.00124502 ++++++++++++++++++++to 0.00124502
Heightened Def Con from 0.00124502 to 0.00124502
Heightened Def Con from 0.00126502 ++++++++++++++++++++to 0.00126502
Heightened Def Con from 0.00126502 to 0.00126502
Heightened Def Con from 0.00128502 ++++++++++++++++++++to 0.00128502
Heightened Def Con from 0.00128502 to 0.00128502
Heightened Def Con from 0.00130502 +++++++++++++++++++++to 0.00130502
Heightened Def Con from 0.00132502 ++++++++++++++++++++to 0.00132502
Heightened Def Con from 0.00132502 to 0.00132502
Heightened Def Con from 0.00134502 ++++++++++++++++to 0.00134502
Heightened Def Con from 0.00134502 to 0.00134502
Heightened Def Con from 0.00136502 +++++++++++++++++++++to 0.00136502
Heightened Def Con from 0.00136502 to 0.00136502
Heightened Def Con from 0.00138502 +++++++++++++++++++++to 0.00138502
Heightened Def Con from 0.00138502 to 0.00138502
Heightened Def Con from 0.00140502 to 0.00140502
Heightened Def Con from 0.00140502 ++++++++++++++++++++to 0.00140502
Heightened Def Con from 0.00140502 to 0.00140502
Heightened Def Con from 0.00142502 +++++++++++++++++++++to 0.00142502
Heightened Def Con from 0.00142502 to 0.00142502
Heightened Def Con from 0.00144502 +++++++++++++++to 0.00144502
Heightened Def Con from 0.00144502 to 0.00144502
Heightened Def Con from 0.00146502 +++++++++++++++++++++to 0.00146502
Heightened Def Con from 0.00146502 to 0.00146502
Heightened Def Con from 0.00148502 +++++++++++++++++++++to 0.00148502
Heightened Def Con from 0.00148502 to 0.00148502
Heightened Def Con from 0.00150502 ++++++++++++++++++++to 0.00150502
Heightened Def Con from 0.00150502 to 0.00150502
Heightened Def Con from 0.00152502 +++++++++++++++++++++to 0.00152502
Heightened Def Con from 0.00152502 to 0.00152502
Heightened Def Con from 0.00154502 ++++++++++++++++++++to 0.00154502
Heightened Def Con from 0.00154502 to 0.00154502
Heightened Def Con from 0.00156502 to 0.00156502
Heightened Def Con from 0.00156502 +++++++++++++++++++++to 0.00156502
Heightened Def Con from 0.00156502 to 0.00156502
Heightened Def Con from 0.00158502 +++++++++++++++++++++to 0.00158502
Heightened Def Con from 0.00158502 to 0.00158502
Heightened Def Con from 0.00160502 +++++++++++++++++++++to 0.00160502
Heightened Def Con from 0.00160502 to 0.00160502
Heightened Def Con from 0.00162502 +++++++++++++++++++++to 0.00162502
Heightened Def Con from 0.00162502 to 0.00162502
Heightened Def Con from 0.00164502 +++++++++++++++++++++to 0.00164502
Heightened Def Con from 0.00164502 to 0.00164502
Heightened Def Con from 0.00166502 ++++++++++++++++++++to 0.00166502
Heightened Def Con from 0.00166502 to 0.00166502
Heightened Def Con from 0.00168502 to 0.00168502
Heightened Def Con from 0.00168502 +++++++++++++++++++++to 0.00168502
Heightened Def Con from 0.00168502 to 0.00168502
Heightened Def Con from 0.00170502 +++++++++++++++++++++to 0.00170502
Heightened Def Con from 0.00170502 to 0.00170502
Heightened Def Con from 0.00172502 ++++++++++++++++++++to 0.00172502
Heightened Def Con from 0.00172502 to 0.00172502
Heightened Def Con from 0.00174502 to 0.00174502
Heightened Def Con from 0.00174502 ++++++++++++++++++++to 0.00174502
Heightened Def Con from 0.00174502 to 0.00174502
Heightened Def Con from 0.00176502 +++++++++++++++++++++to 0.00176502
Heightened Def Con from 0.00178502 ++++++++++++++++++++to 0.00178502
Heightened Def Con from 0.00178502 to 0.00178502
Heightened Def Con from 0.00180502 +++++++++++++++++++++to 0.00180502
Heightened Def Con from 0.00180502 to 0.00180502
Heightened Def Con from 0.00182502 +++++++++++++++++++++to 0.00182502
Heightened Def Con from 0.00184502 +++++++++++++++++to 0.00184502
Heightened Def Con from 0.00184502 to 0.00184502
Heightened Def Con from 0.00186502 ++++++++++++++++++++to 0.00186502
Heightened Def Con from 0.00186502 to 0.00186502
Heightened Def Con from 0.00188502 +++++++++++++++++++++to 0.00188502
Heightened Def Con from 0.00188502 to 0.00188502
Heightened Def Con from 0.00190502 ++++++++++++++++++++to 0.00190502
Heightened Def Con from 0.00190502 to 0.00190502
Heightened Def Con from 0.00192502 +++++++++++++++++++++to 0.00192502
Heightened Def Con from 0.00192502 to 0.00192502
Heightened Def Con from 0.00194502 +++++++++++++++++++to 0.00194502
Heightened Def Con from 0.00194502 to 0.00194502
Heightened Def Con from 0.00196502 +++++++++++++++++++++to 0.00196502
Heightened Def Con from 0.00196502 to 0.00196502
Heightened Def Con from 0.00198502 +++++++++++++++++++++to 0.00198502
Heightened Def Con from 0.00198502 to 0.00198502
Heightened Def Con from 0.00200502 +++++++++++++++to 0.00200502
Heightened Def Con from 0.00200502 to 0.00200502
Heightened Def Con from 0.00202502 +++++++++++++++++++++to 0.00202502
Heightened Def Con from 0.00202502 to 0.00202502
Heightened Def Con from 0.00204502 +++++++++++++++++++++to 0.00204502
Heightened Def Con from 0.00204502 to 0.00204502
Heightened Def Con from 0.00206502 +++++++++++++++++++++to 0.00206502
Heightened Def Con from 0.00206502 to 0.00206502
Heightened Def Con from 0.00208502 +++++++++++++++++++++to 0.00208502
Heightened Def Con from 0.00208502 to 0.00208502
Heightened Def Con from 0.00210502 +++++++++++++++++++++to 0.00210502
Heightened Def Con from 0.00210502 to 0.00210502
Heightened Def Con from 0.00212502 ++++++++++++++++++to 0.00212502
Heightened Def Con from 0.00212502 to 0.00212502
Heightened Def Con from 0.00214502 ++++++++++++++++++++to 0.00214502
Heightened Def Con from 0.00214502 to 0.00214502
Heightened Def Con from 0.00216502 +++++++++++++++++++++to 0.00216502
Heightened Def Con from 0.00216502 to 0.00216502
Heightened Def Con from 0.00218502 +++++++++++++++++++++to 0.00218502
Heightened Def Con from 0.00218502 to 0.00218502
Heightened Def Con from 0.00220502 +++++++++++++++++++++to 0.00220502
Heightened Def Con from 0.00220502 to 0.00220502
Heightened Def Con from 0.00222502 +++++++++++++++++++++to 0.00222502
Heightened Def Con from 0.00222502 to 0.00222502
Heightened Def Con from 0.00224502 ++++++++++++++++++to 0.00224502
Heightened Def Con from 0.00224502 to 0.00224502
Heightened Def Con from 0.00226502 +++++++++++++++++++++to 0.00226502
Heightened Def Con from 0.00226502 to 0.00226502
Heightened Def Con from 0.00228502 ++++++++++++++++++++to 0.00228502
Heightened Def Con from 0.00228502 to 0.00228502
Heightened Def Con from 0.00230502 to 0.00230502
Heightened Def Con from 0.00230502 +++++++++++++++++++++to 0.00230502
Heightened Def Con from 0.00230502 to 0.00230502
Heightened Def Con from 0.00232502 +++++++++++++++++++++to 0.00232502
Heightened Def Con from 0.00232502 to 0.00232502
Heightened Def Con from 0.00234502 ++++++++++++++++++++to 0.00234502
Heightened Def Con from 0.00234502 to 0.00234502
Heightened Def Con from 0.00236502 +++++++++++++++++++++to 0.00236502
Heightened Def Con from 0.00236502 to 0.00236502
Heightened Def Con from 0.00238502 +++++++++++++++++++++to 0.00238502
Heightened Def Con from 0.00238502 to 0.00238502
Heightened Def Con from 0.00240502 +++++++++++++++++to 0.00240502
Heightened Def Con from 0.00240502 to 0.00240502
Heightened Def Con from 0.00242502 +++++++++++++++++++++to 0.00242502
Heightened Def Con from 0.00242502 to 0.00242502
Heightened Def Con from 0.00244502 ++++++++++++++++++++to 0.00244502
Heightened Def Con from 0.00244502 to 0.00244502
Heightened Def Con from 0.00246502 ++++++++++++++++++++++to 0.00246502
Heightened Def Con from 0.00246502 to 0.00246502
Heightened Def Con from 0.00248502 +++++++++++++++++++++to 0.00248502
Heightened Def Con from 0.00248502 to 0.00248502
Heightened Def Con from 0.00250502 ++++++++++++++++++++to 0.00250502
Heightened Def Con from 0.00250502 to 0.00250502
Heightened Def Con from 0.00252502 +++++++++++++++++++++to 0.00252502
Heightened Def Con from 0.00252502 to 0.00252502
Heightened Def Con from 0.00254502 +++++++++++++++++++to 0.00254502
Heightened Def Con from 0.00254502 to 0.00254502
Heightened Def Con from 0.00256502 +++++++++++++++++++++to 0.00256502
Heightened Def Con from 0.00256502 to 0.00256502
Heightened Def Con from 0.00258502 +++++++++++++++++++++to 0.00258502
Heightened Def Con from 0.00258502 to 0.00258502
Heightened Def Con from 0.00260502 +++++++++++++++++++++to 0.00260502
Heightened Def Con from 0.00260502 to 0.00260502
Heightened Def Con from 0.00262502 +++++++++++++++++++++to 0.00262502
Heightened Def Con from 0.00262502 to 0.00262502
Heightened Def Con from 0.00264502 ++++++++++++++++++++to 0.00264502
Heightened Def Con from 0.00264502 to 0.00264502
Heightened Def Con from 0.00266502 +++++++++++++++++++++to 0.00266502
Heightened Def Con from 0.00266502 to 0.00266502
Heightened Def Con from 0.00268502 +++++++++++++++++++++to 0.00268502
Heightened Def Con from 0.00268502 to 0.00268502
Heightened Def Con from 0.00270502 +++++++++++++++++++++to 0.00270502
Heightened Def Con from 0.00270502 to 0.00270502
Heightened Def Con from 0.00272502 ++++++++++++++++++++to 0.00272502
Heightened Def Con from 0.00272502 to 0.00272502
Heightened Def Con from 0.00274502 +++++++++++++++++++++to 0.00274502
Heightened Def Con from 0.00274502 to 0.00274502
Heightened Def Con from 0.00276502 ++++++++++++++++++++to 0.00276502
Heightened Def Con from 0.00276502 to 0.00276502
Heightened Def Con from 0.00278502 +++++++++++++++++++++to 0.00278502
Heightened Def Con from 0.00278502 to 0.00278502
Heightened Def Con from 0.00280502 to 0.00280502
Heightened Def Con from 0.00280502 +++++++++++++++++++++to 0.00280502
Heightened Def Con from 0.00280502 to 0.00280502
Heightened Def Con from 0.00282502 ++++++++++++++++++++to 0.00282502
Heightened Def Con from 0.00282502 to 0.00282502
Heightened Def Con from 0.00284502 +++++++++++++++++++to 0.00284502
Heightened Def Con from 0.00284502 to 0.00284502
Heightened Def Con from 0.00286502 ++++++++++++++++++++to 0.00286502
Heightened Def Con from 0.00286502 to 0.00286502
Heightened Def Con from 0.00288502 +++++++++++++++++++++to 0.00288502
Heightened Def Con from 0.00288502 to 0.00288502
Heightened Def Con from 0.00290502 ++++++++++++++++++++to 0.00290502
Heightened Def Con from 0.00290502 to 0.00290502
Heightened Def Con from 0.00292502 ++++++++++++++++++++to 0.00292502
Heightened Def Con from 0.00292502 to 0.00292502
Heightened Def Con from 0.00294502 ++++++++++++++++to 0.00294502
Heightened Def Con from 0.00294502 to 0.00294502
Heightened Def Con from 0.00296502 +++++++++++++++++++++to 0.00296502
Heightened Def Con from 0.00296502 to 0.00296502
Heightened Def Con from 0.00298502 +++++++++++++++++++++to 0.00298502
Heightened Def Con from 0.00298502 to 0.00298502
Heightened Def Con from 0.00300502 +++++++++++++++++++++to 0.00300502
Heightened Def Con from 0.00300502 to 0.00300502
Heightened Def Con from 0.00302502 +++++++++++++++++++++to 0.00302502
Heightened Def Con from 0.00302502 to 0.00302502
Heightened Def Con from 0.00304502 +++++++++++++++++++++to 0.00304502
Heightened Def Con from 0.00304502 to 0.00304502
Heightened Def Con from 0.00306502 +++++++++++++++++to 0.00306502
Heightened Def Con from 0.00306502 to 0.00306502
Heightened Def Con from 0.00308502 ++++++++++++++++++to 0.00308502
Heightened Def Con from 0.00308502 to 0.00308502
Heightened Def Con from 0.00310502 ++++++++++++++++++++++to 0.00310502
Heightened Def Con from 0.00310502 to 0.00310502
Heightened Def Con from 0.00312502 +++++++++++++++++++++to 0.00312502
Heightened Def Con from 0.00312502 to 0.00312502
Heightened Def Con from 0.00314502 ++++++++++++++++++++to 0.00314502
Heightened Def Con from 0.00314502 to 0.00314502
Heightened Def Con from 0.00316502 +++++++++++++++++++++to 0.00316502
Heightened Def Con from 0.00316502 to 0.00316502
Heightened Def Con from 0.00318502 ++++++++++++++++++++to 0.00318502
Heightened Def Con from 0.00318502 to 0.00318502
Heightened Def Con from 0.00320502 +++++++++++++++++++to 0.00320502
Heightened Def Con from 0.00320502 to 0.00320502
Heightened Def Con from 0.00322502 to 0.00322502
Heightened Def Con from 0.00322502 +++++++++++++++++++to 0.00322502
Heightened Def Con from 0.00322502 to 0.00322502
Heightened Def Con from 0.00324502 ++++++++++++++++to 0.00324502
Heightened Def Con from 0.00324502 to 0.00324502
Heightened Def Con from 0.00326502 +++++++++++++++++++++to 0.00326502
Heightened Def Con from 0.00326502 to 0.00326502
Heightened Def Con from 0.00328502 ++++++++++++++++to 0.00328502
Heightened Def Con from 0.00328502 to 0.00328502
Heightened Def Con from 0.00330502 +++++++++++++++++++++to 0.00330502
Heightened Def Con from 0.00330502 to 0.00330502
Heightened Def Con from 0.00332502 +++++++++++++++++++++to 0.00332502
Heightened Def Con from 0.00332502 to 0.00332502
Heightened Def Con from 0.00334502 ++++++++++++++++++++++to 0.00334502
Heightened Def Con from 0.00334502 to 0.00334502
Heightened Def Con from 0.00336502 +++++++++++++++++++++to 0.00336502
Heightened Def Con from 0.00336502 to 0.00336502
Heightened Def Con from 0.00338502 ++++++++++++++++++++to 0.00338502
Heightened Def Con from 0.00338502 to 0.00338502
Heightened Def Con from 0.00340502 ++++++++++++++++++++to 0.00340502
Heightened Def Con from 0.00340502 to 0.00340502
Heightened Def Con from 0.00342502 +++++++++++++++++++++to 0.00342502
Heightened Def Con from 0.00342502 to 0.00342502
Heightened Def Con from 0.00344502 to 0.00344502
Heightened Def Con from 0.00344502 +++++++++++++++++++++to 0.00344502
Heightened Def Con from 0.00344502 to 0.00344502
Heightened Def Con from 0.00346502 +++++++++++++++++++++to 0.00346502
Heightened Def Con from 0.00346502 to 0.00346502
Heightened Def Con from 0.00348502 +++++++++++++++++++++to 0.00348502
Heightened Def Con from 0.00348502 to 0.00348502
Heightened Def Con from 0.00350502 ++++++++to 0.00350502
Heightened Def Con from 0.00350502 to 0.00350502
Heightened Def Con from 0.00352502 +++++++++++++++++++++to 0.00352502
Heightened Def Con from 0.00352502 to 0.00352502
Heightened Def Con from 0.00354502 ++++++++++++++++++++to 0.00354502
Heightened Def Con from 0.00354502 to 0.00354502
Heightened Def Con from 0.00356502 +++++++++++++++++++++to 0.00356502
Heightened Def Con from 0.00356502 to 0.00356502
Heightened Def Con from 0.00358502 +++++++++++++++++++++to 0.00358502
Heightened Def Con from 0.00358502 to 0.00358502
Heightened Def Con from 0.00360502 +++++++++++++++++++++to 0.00360502
Heightened Def Con from 0.00360502 to 0.00360502
Heightened Def Con from 0.00362502 +++++++++++++++++++++to 0.00362502
Heightened Def Con from 0.00362502 to 0.00362502
Heightened Def Con from 0.00364502 +++++++++++++++++++++to 0.00364502
Heightened Def Con from 0.00364502 to 0.00364502
Heightened Def Con from 0.00366502 to 0.00366502
Heightened Def Con from 0.00366502 ++++++++++to 0.00366502
Heightened Def Con from 0.00366502 to 0.00366502
Heightened Def Con from 0.00368502 +++++++++++++++++++++to 0.00368502
Heightened Def Con from 0.00368502 to 0.00368502
Heightened Def Con from 0.00370502 +++++++++++++++++++++to 0.00370502
Heightened Def Con from 0.00370502 to 0.00370502
Heightened Def Con from 0.00372502 ++++++++++++++++++++++to 0.00372502
Heightened Def Con from 0.00372502 to 0.00372502
Heightened Def Con from 0.00374502 +++++++++++++++++++++to 0.00374502
Heightened Def Con from 0.00374502 to 0.00374502
Heightened Def Con from 0.00376502 +++++++++++++++++++++to 0.00376502
Heightened Def Con from 0.00376502 to 0.00376502
Heightened Def Con from 0.00378502 +++++++++++++++++++++to 0.00378502
Heightened Def Con from 0.00378502 to 0.00378502
Heightened Def Con from 0.00380502 +++++++++++++++++++++to 0.00380502
Heightened Def Con from 0.00380502 to 0.00380502
Heightened Def Con from 0.00382502 to 0.00382502
Heightened Def Con from 0.00382502 +++++++++++++++++++++to 0.00382502
Heightened Def Con from 0.00382502 to 0.00382502
Heightened Def Con from 0.00384502 ++++++++++++++++++++to 0.00384502
Heightened Def Con from 0.00384502 to 0.00384502
Heightened Def Con from 0.00386502 +++++++++++++++++++++to 0.00386502
Heightened Def Con from 0.00386502 to 0.00386502
Heightened Def Con from 0.00388502 +++++++++++++++++++++to 0.00388502
Heightened Def Con from 0.00388502 to 0.00388502
Heightened Def Con from 0.00390502 to 0.00390502
Heightened Def Con from 0.00390502 ++++++++++++++++++to 0.00390502
Heightened Def Con from 0.00390502 to 0.00390502
Heightened Def Con from 0.00392502 ++++++++++++++++++++to 0.00392502
Heightened Def Con from 0.00392502 to 0.00392502
Heightened Def Con from 0.00394502 +++++++++++++++++to 0.00394502
Heightened Def Con from 0.00394502 to 0.00394502
Heightened Def Con from 0.00396502 +++++++++++++++++++++to 0.00396502
Heightened Def Con from 0.00396502 to 0.00396502
Heightened Def Con from 0.00398502 ++++++++++++++++++to 0.00398502
Heightened Def Con from 0.00398502 to 0.00398502
Heightened Def Con from 0.00400502 +++++++++++++++++++++to 0.00400502
Heightened Def Con from 0.00400502 to 0.00400502
Heightened Def Con from 0.00402502 to 0.00402502
Heightened Def Con from 0.00402502 +++++++++++++++++++++to 0.00402502
Heightened Def Con from 0.00402502 to 0.00402502
Heightened Def Con from 0.00404502 ++++++++++++++++++++to 0.00404502
Heightened Def Con from 0.00404502 to 0.00404502
Heightened Def Con from 0.00406502 ++++++++++++++++++++to 0.00406502
Heightened Def Con from 0.00406502 to 0.00406502
Heightened Def Con from 0.00408502 to 0.00408502
Heightened Def Con from 0.00408502 ++++++++++++++++++++to 0.00408502
Heightened Def Con from 0.00408502 to 0.00408502
Heightened Def Con from 0.00410502 +++++++++++++++++++to 0.00410502
Heightened Def Con from 0.00410502 to 0.00410502
Heightened Def Con from 0.00412502 to 0.00412502
Heightened Def Con from 0.00412502 +++++++++++++++++to 0.00412502
Heightened Def Con from 0.00412502 to 0.00412502
Heightened Def Con from 0.00414502 ++++++++++++++++to 0.00414502
Heightened Def Con from 0.00414502 to 0.00414502
Heightened Def Con from 0.00416502 +++++++++++++++++++++to 0.00416502
Heightened Def Con from 0.00416502 to 0.00416502
Heightened Def Con from 0.00418502 to 0.00418502
Heightened Def Con from 0.00418502 +++++++++++++++++++++to 0.00418502
Heightened Def Con from 0.00418502 to 0.00418502
Heightened Def Con from 0.00420502 ++++++++++++++++++++to 0.00420502
Heightened Def Con from 0.00420502 to 0.00420502
Heightened Def Con from 0.00422502 ++++++++++++++++++++to 0.00422502
Heightened Def Con from 0.00422502 to 0.00422502
Heightened Def Con from 0.00424502 +++++to 0.00424502
Heightened Def Con from 0.00424502 to 0.00424502
Heightened Def Con from 0.00426502 +++++++++++++++++++++to 0.00426502
Heightened Def Con from 0.00426502 to 0.00426502
Heightened Def Con from 0.00428502 +++++++++++++++++++++to 0.00428502
Heightened Def Con from 0.00428502 to 0.00428502
Heightened Def Con from 0.00430502 +++++++++++++++++++++to 0.00430502
Heightened Def Con from 0.00430502 to 0.00430502
Heightened Def Con from 0.00432502 +++++++++++++++++++++to 0.00432502
Heightened Def Con from 0.00432502 to 0.00432502
Heightened Def Con from 0.00434502 +++++++++++++++++++++to 0.00434502
Heightened Def Con from 0.00434502 to 0.00434502
Heightened Def Con from 0.00436502 ++++++++++++++++++++to 0.00436502
Heightened Def Con from 0.00436502 to 0.00436502
Heightened Def Con from 0.00438502 ++++++++++++++++++++++to 0.00438502
Heightened Def Con from 0.00438502 to 0.00438502
Heightened Def Con from 0.00440502 ++++++++++++++++++to 0.00440502
Heightened Def Con from 0.00440502 to 0.00440502
Heightened Def Con from 0.00442502 to 0.00442502
Heightened Def Con from 0.00442502 ++++++++++++++++++++to 0.00442502
Heightened Def Con from 0.00442502 to 0.00442502
Heightened Def Con from 0.00444502 ++++++++++++++++++++to 0.00444502
Heightened Def Con from 0.00444502 to 0.00444502
Heightened Def Con from 0.00446502 +++++++++++++++++++++to 0.00446502
Heightened Def Con from 0.00446502 to 0.00446502
Heightened Def Con from 0.00448502 +++++++++++++++++++++to 0.00448502
Heightened Def Con from 0.00448502 to 0.00448502
Heightened Def Con from 0.00450502 +++++++++++++++++++++to 0.00450502
Heightened Def Con from 0.00450502 to 0.00450502
Heightened Def Con from 0.00452502 +++++++++++++++++++++to 0.00452502
Heightened Def Con from 0.00452502 to 0.00452502
Heightened Def Con from 0.00454502 ++++++++++++++++++++to 0.00454502
Heightened Def Con from 0.00454502 to 0.00454502
Heightened Def Con from 0.00456502 ++++++++++++++++++++to 0.00456502
Heightened Def Con from 0.00456502 to 0.00456502
Heightened Def Con from 0.00458502 +++++++++++++++++++to 0.00458502
Heightened Def Con from 0.00458502 to 0.00458502
Heightened Def Con from 0.00460502 +++++++++++++++++++to 0.00460502
Heightened Def Con from 0.00460502 to 0.00460502
Heightened Def Con from 0.00462502 +++++++++++++++++++++to 0.00462502
Heightened Def Con from 0.00462502 to 0.00462502
Heightened Def Con from 0.00464502 ++++++++++++++++++to 0.00464502
Heightened Def Con from 0.00464502 to 0.00464502
Heightened Def Con from 0.00466502 +++++++++++++++++++to 0.00466502
Heightened Def Con from 0.00466502 to 0.00466502
Heightened Def Con from 0.00468502 +++++++++++++++++++++to 0.00468502
Heightened Def Con from 0.00468502 to 0.00468502
Heightened Def Con from 0.00470502 to 0.00470502
Heightened Def Con from 0.00470502 +++++++++++++++++++++to 0.00470502
Heightened Def Con from 0.00470502 to 0.00470502
Heightened Def Con from 0.00472502 ++++++++++++++++++++to 0.00472502
Heightened Def Con from 0.00472502 to 0.00472502
Heightened Def Con from 0.00474502 +++++++++++++++++++++to 0.00474502
Heightened Def Con from 0.00474502 to 0.00474502
Heightened Def Con from 0.00476502 +++++++++++++++++++++to 0.00476502
Heightened Def Con from 0.00476502 to 0.00476502
Heightened Def Con from 0.00478502 +++++++++++++++++++to 0.00478502
Heightened Def Con from 0.00478502 to 0.00478502
Heightened Def Con from 0.00480502 +++++++++++++++++++++to 0.00480502
Heightened Def Con from 0.00480502 to 0.00480502
Heightened Def Con from 0.00482502 +++++++++++++++++++++to 0.00482502
Heightened Def Con from 0.00482502 to 0.00482502
Heightened Def Con from 0.00484502 +++++++++++++++++++++to 0.00484502
Heightened Def Con from 0.00484502 to 0.00484502
Heightened Def Con from 0.00486502 +++++++++++++++++++++to 0.00486502
Heightened Def Con from 0.00486502 to 0.00486502
Heightened Def Con from 0.00488502 ++++++++++++++++++to 0.00488502
Heightened Def Con from 0.00488502 to 0.00488502
Heightened Def Con from 0.00490502 +++++++++++++++++++++to 0.00490502
Heightened Def Con from 0.00490502 to 0.00490502
Heightened Def Con from 0.00492502 ++++++++++++++++++++to 0.00492502
Heightened Def Con from 0.00492502 to 0.00492502
Heightened Def Con from 0.00494502 +++++++++++++++++++to 0.00494502
Heightened Def Con from 0.00494502 to 0.00494502
Heightened Def Con from 0.00496502 to 0.00496502
Heightened Def Con from 0.00496502 to 0.00496502
Heightened Def Con from 0.00498502 ++++++++++++++++++++to 0.00498502
Heightened Def Con from 0.00498502 to 0.00498502
Heightened Def Con from 0.00500502 ++++++++++++++++++++to 0.00500502
Heightened Def Con from 0.00500502 to 0.00500502
Heightened Def Con from 0.00502502 +++++++++++++++++++++to 0.00502502
Heightened Def Con from 0.00502502 to 0.00502502
Heightened Def Con from 0.00504502 +++++++++++++++++++++to 0.00504502
Heightened Def Con from 0.00504502 to 0.00504502
Heightened Def Con from 0.00506502 ++++++++++++++++++++to 0.00506502
Heightened Def Con from 0.00506502 to 0.00506502
Heightened Def Con from 0.00508502 +++++++++++++++++++to 0.00508502
Heightened Def Con from 0.00508502 to 0.00508502
Heightened Def Con from 0.00510502 to 0.00510502
Heightened Def Con from 0.00510502 +++++++++++++++++++++to 0.00510502
Heightened Def Con from 0.00510502 to 0.00510502
Heightened Def Con from 0.00512502 +++++++++++++++++++++to 0.00512502
Heightened Def Con from 0.00512502 to 0.00512502
Heightened Def Con from 0.00514502 ++++++++++++++++++++to 0.00514502
Heightened Def Con from 0.00514502 to 0.00514502
Heightened Def Con from 0.00516502 +++++++++++++++++++++to 0.00516502
Heightened Def Con from 0.00516502 to 0.00516502
Heightened Def Con from 0.00518502 +++++++++++++++++++++to 0.00518502
Heightened Def Con from 0.00518502 to 0.00518502
Heightened Def Con from 0.00520502 to 0.00520502
Heightened Def Con from 0.00520502 ++++++++++++++++++++to 0.00520502
Heightened Def Con from 0.00520502 to 0.00520502
Heightened Def Con from 0.00522502 to 0.00522502
Heightened Def Con from 0.00522502 to 0.00522502
Heightened Def Con from 0.00524502 to 0.00524502
Heightened Def Con from 0.00524502 +++++++++++++++++++++to 0.00524502
Heightened Def Con from 0.00524502 to 0.00524502
Heightened Def Con from 0.00526502 +++++++++++++++++++++to 0.00526502
Heightened Def Con from 0.00526502 to 0.00526502
Heightened Def Con from 0.00528502 ++++++++++++++++++++to 0.00528502
Heightened Def Con from 0.00528502 to 0.00528502
Heightened Def Con from 0.00530502 +++++++++++++++++++++to 0.00530502
Heightened Def Con from 0.00530502 to 0.00530502
Heightened Def Con from 0.00532502 +++++++++++++++++++++to 0.00532502
Heightened Def Con from 0.00532502 to 0.00532502
Heightened Def Con from 0.00534502 ++++++++++++++++to 0.00534502
Heightened Def Con from 0.00534502 to 0.00534502
Heightened Def Con from 0.00536502 +++++++++++++++++++++to 0.00536502
Heightened Def Con from 0.00536502 to 0.00536502
Heightened Def Con from 0.00538502 +++++++++++++++++++to 0.00538502
Heightened Def Con from 0.00538502 to 0.00538502
Heightened Def Con from 0.00540502 +++++++++++++++++to 0.00540502
Heightened Def Con from 0.00540502 to 0.00540502
Heightened Def Con from 0.00542502 +++++++++++++++++++++to 0.00542502
Heightened Def Con from 0.00542502 to 0.00542502
Heightened Def Con from 0.00544502 +++++++++++++++++++++to 0.00544502
Heightened Def Con from 0.00544502 to 0.00544502
Heightened Def Con from 0.00546502 +++++++++++++++++++++to 0.00546502
Heightened Def Con from 0.00546502 to 0.00546502
Heightened Def Con from 0.00548502 +++++to 0.00548502
Heightened Def Con from 0.00548502 to 0.00548502
Heightened Def Con from 0.00550502 to 0.00550502
Heightened Def Con from 0.00550502 +++++++++++++++++++++to 0.00550502
Heightened Def Con from 0.00550502 to 0.00550502
Heightened Def Con from 0.00552502 +++++++++++++++++++++to 0.00552502
Heightened Def Con from 0.00552502 to 0.00552502
Heightened Def Con from 0.00554502 +++++++++++++++++++to 0.00554502
Heightened Def Con from 0.00554502 to 0.00554502
Heightened Def Con from 0.00556502 +++++++++++++++++++++to 0.00556502
Heightened Def Con from 0.00558502 +++++++++++++++++++++to 0.00558502
Heightened Def Con from 0.00560502 to 0.00560502
Heightened Def Con from 0.00560502 +++++++++++++++++++++to 0.00560502
Heightened Def Con from 0.00562502 +++++++++++++++++++++to 0.00562502
Heightened Def Con from 0.00564502 to 0.00564502
Heightened Def Con from 0.00564502 ++++++++++++++++to 0.00564502
Heightened Def Con from 0.00564502 to 0.00564502
Heightened Def Con from 0.00566502 +++++++++++++++++to 0.00566502
Heightened Def Con from 0.00566502 to 0.00566502
Heightened Def Con from 0.00568502 +++++++++++++++++++++to 0.00568502
Heightened Def Con from 0.00568502 to 0.00568502
Heightened Def Con from 0.00570502 to 0.00570502
Heightened Def Con from 0.00570502 +++++++++++++++++++++to 0.00570502
Heightened Def Con from 0.00572502 +++++++++++++++++++++to 0.00572502
Heightened Def Con from 0.00572502 to 0.00572502
Heightened Def Con from 0.00574502 ++++++++++++++++++++to 0.00574502
Heightened Def Con from 0.00574502 to 0.00574502
Heightened Def Con from 0.00576502 ++++++++++++++++to 0.00576502
Heightened Def Con from 0.00576502 to 0.00576502
Heightened Def Con from 0.00578502 ++++++++++++++++++to 0.00578502
Heightened Def Con from 0.00578502 to 0.00578502
Heightened Def Con from 0.00580502 +++++++++++++++++++++to 0.00580502
Heightened Def Con from 0.00580502 to 0.00580502
Heightened Def Con from 0.00582502 ++++++++++++++++++++to 0.00582502
Heightened Def Con from 0.00582502 to 0.00582502
Heightened Def Con from 0.00584502 ++++++++++++++++++++to 0.00584502
Heightened Def Con from 0.00584502 to 0.00584502
Heightened Def Con from 0.00586502 to 0.00586502
Heightened Def Con from 0.00588502 ++++++++++++++++++++to 0.00588502
Heightened Def Con from 0.00588502 to 0.00588502
Heightened Def Con from 0.00590502 +++++++++++++++++++++to 0.00590502
Heightened Def Con from 0.00590502 to 0.00590502
Heightened Def Con from 0.00592502 ++++++++++++++++++++to 0.00592502
Heightened Def Con from 0.00592502 to 0.00592502
Heightened Def Con from 0.00594502 +++++++++++++++++++++to 0.00594502
Heightened Def Con from 0.00594502 to 0.00594502
Heightened Def Con from 0.00596502 ++++to 0.00596502
Heightened Def Con from 0.00596502 to 0.00596502
Heightened Def Con from 0.00598502 +++++++++++++++++++++to 0.00598502
Heightened Def Con from 0.00598502 to 0.00598502
Heightened Def Con from 0.00600502 to 0.00600502
Heightened Def Con from 0.00600502 ++++++++++++++++++to 0.00600502
Heightened Def Con from 0.00600502 to 0.00600502
Heightened Def Con from 0.00602502 to 0.00602502
Heightened Def Con from 0.00602502 +++++++++++++++++++++to 0.00602502
Heightened Def Con from 0.00602502 to 0.00602502
Heightened Def Con from 0.00604502 +++++++++++++++++++++to 0.00604502
Heightened Def Con from 0.00604502 to 0.00604502
Heightened Def Con from 0.00606502 to 0.00606502
Heightened Def Con from 0.00606502 +++++++++++++++++++++to 0.00606502
Heightened Def Con from 0.00606502 to 0.00606502
Heightened Def Con from 0.00608502 +++++++++++++++++++++to 0.00608502
Heightened Def Con from 0.00608502 to 0.00608502
Heightened Def Con from 0.00610502 ++++++++++++++++++++to 0.00610502
Heightened Def Con from 0.00610502 to 0.00610502
Heightened Def Con from 0.00612502 +++++++++++++++++++++to 0.00612502
Heightened Def Con from 0.00612502 to 0.00612502
Heightened Def Con from 0.00614502 +++++++++++++++++to 0.00614502
Heightened Def Con from 0.00614502 to 0.00614502
Heightened Def Con from 0.00616502 ++++++++++++++++++++to 0.00616502
Heightened Def Con from 0.00616502 to 0.00616502
Heightened Def Con from 0.00618502 +++++++++++++++++++++to 0.00618502
Heightened Def Con from 0.00618502 to 0.00618502
Heightened Def Con from 0.00620502 +++++++++++++++++++++to 0.00620502
Heightened Def Con from 0.00620502 to 0.00620502
Heightened Def Con from 0.00622502 +++++++++++++++++++++to 0.00622502
Heightened Def Con from 0.00624502 +++++++++++++++++++++to 0.00624502
Heightened Def Con from 0.00624502 to 0.00624502
Heightened Def Con from 0.00626502 to 0.00626502
Heightened Def Con from 0.00626502 ++++++++++++++++++++to 0.00626502
Heightened Def Con from 0.00626502 to 0.00626502
Heightened Def Con from 0.00628502 +++++++++++++++++++++to 0.00628502
Heightened Def Con from 0.00628502 to 0.00628502
Heightened Def Con from 0.00630502 +++++++++++++++++++++to 0.00630502
Heightened Def Con from 0.00632502 +++++++++++++++++++++to 0.00632502
Heightened Def Con from 0.00632502 to 0.00632502
Heightened Def Con from 0.00634502 +++++++++++++++++++++to 0.00634502
Heightened Def Con from 0.00634502 to 0.00634502
Heightened Def Con from 0.00636502 ++++++++++++++++++++to 0.00636502
Heightened Def Con from 0.00636502 to 0.00636502
Heightened Def Con from 0.00638502 ++++++++++++++++++++to 0.00638502
Heightened Def Con from 0.00638502 to 0.00638502
Heightened Def Con from 0.00640502 +++++++++++++++++++++to 0.00640502
Heightened Def Con from 0.00640502 to 0.00640502
Heightened Def Con from 0.00642502 +++++++++++++++++++++to 0.00642502
Heightened Def Con from 0.00642502 to 0.00642502
Heightened Def Con from 0.00644502 ++++++++++++++++++++to 0.00644502
Heightened Def Con from 0.00644502 to 0.00644502
Heightened Def Con from 0.00646502 +++++++++++++to 0.00646502
Heightened Def Con from 0.00646502 to 0.00646502
Heightened Def Con from 0.00648502 ++++++++++++++++++++to 0.00648502
Heightened Def Con from 0.00648502 to 0.00648502
Heightened Def Con from 0.00650502 +++++++++++++++++++++to 0.00650502
Heightened Def Con from 0.00650502 to 0.00650502
Heightened Def Con from 0.00652502 +++++++++++++++++++++to 0.00652502
Heightened Def Con from 0.00652502 to 0.00652502
Heightened Def Con from 0.00654502 +++++++++++++++++++++to 0.00654502
Heightened Def Con from 0.00656502 ++++++++++++++++++++to 0.00656502
Heightened Def Con from 0.00656502 to 0.00656502
Heightened Def Con from 0.00658502 +++++++++++++++++++++to 0.00658502
Heightened Def Con from 0.00658502 to 0.00658502
Heightened Def Con from 0.00660502 +++++++++++++++++++++to 0.00660502
Heightened Def Con from 0.00660502 to 0.00660502
Heightened Def Con from 0.00662502 ++++++++++++++++++to 0.00662502
Heightened Def Con from 0.00662502 to 0.00662502
Heightened Def Con from 0.00664502 +++++++++++++++++++++to 0.00664502
Heightened Def Con from 0.00664502 to 0.00664502
Heightened Def Con from 0.00666502 +++++++++++++++++++++to 0.00666502
Heightened Def Con from 0.00668502 to 0.00668502
Heightened Def Con from 0.00668502 +++++++++++++++++++++to 0.00668502
Heightened Def Con from 0.00670502 +++++++++++++++++++++to 0.00670502
Heightened Def Con from 0.00670502 to 0.00670502
Heightened Def Con from 0.00672502 +++++++++++++++++++++to 0.00672502
Heightened Def Con from 0.00672502 to 0.00672502
Heightened Def Con from 0.00674502 +++++++++++++++++++++to 0.00674502
Heightened Def Con from 0.00674502 to 0.00674502
Heightened Def Con from 0.00676502 +++++++++++++++++++++to 0.00676502
Heightened Def Con from 0.00676502 to 0.00676502
Heightened Def Con from 0.00678502 to 0.00678502
Heightened Def Con from 0.00678502 +++++++++++++++++++++to 0.00678502
Heightened Def Con from 0.00678502 to 0.00678502
Heightened Def Con from 0.00680502 +++++++++++++++++++++to 0.00680502
Heightened Def Con from 0.00680502 to 0.00680502
Heightened Def Con from 0.00682502 ++++++++++++++++++++to 0.00682502
Heightened Def Con from 0.00682502 to 0.00682502
Heightened Def Con from 0.00684502 +++++++++++++++++++++to 0.00684502
Heightened Def Con from 0.00684502 to 0.00684502
Heightened Def Con from 0.00686502 +++++++++++++++++++++to 0.00686502
Heightened Def Con from 0.00688502 +++++++++++++++++++++to 0.00688502
Heightened Def Con from 0.00688502 to 0.00688502
Heightened Def Con from 0.00690502 ++++++++++++++++++++to 0.00690502
Heightened Def Con from 0.00690502 to 0.00690502
Heightened Def Con from 0.00692502 +++++++++++++++++++++to 0.00692502
Heightened Def Con from 0.00692502 to 0.00692502
Heightened Def Con from 0.00694502 +++++++++++++++++++++to 0.00694502
Heightened Def Con from 0.00694502 to 0.00694502
Heightened Def Con from 0.00696502 +++++++++++++++++++++to 0.00696502
Heightened Def Con from 0.00696502 to 0.00696502
Heightened Def Con from 0.00698502 ++++++++++++++++++++to 0.00698502
Heightened Def Con from 0.00698502 to 0.00698502
Heightened Def Con from 0.00700502 +++++++++++++++++++++to 0.00700502
Heightened Def Con from 0.00700502 to 0.00700502
Heightened Def Con from 0.00702502 +++++++++++++++++++++to 0.00702502
Heightened Def Con from 0.00704502 ++++++++++++++++++++to 0.00704502
Heightened Def Con from 0.00704502 to 0.00704502
Heightened Def Con from 0.00706502 +++++++++++++++++++++to 0.00706502
Heightened Def Con from 0.00706502 to 0.00706502
Heightened Def Con from 0.00708502 ++++++++++++++++++++to 0.00708502
Heightened Def Con from 0.00708502 to 0.00708502
Heightened Def Con from 0.00710502 ++++++++++++++++++++to 0.00710502
Heightened Def Con from 0.00710502 to 0.00710502
Heightened Def Con from 0.00712502 +++++++++++++++++++++to 0.00712502
Heightened Def Con from 0.00712502 to 0.00712502
Heightened Def Con from 0.00714502 +++++++++++++++++++++to 0.00714502
Heightened Def Con from 0.00716502 +++++++++++++++++++++to 0.00716502
Heightened Def Con from 0.00716502 to 0.00716502
Heightened Def Con from 0.00718502 to 0.00718502
Heightened Def Con from 0.00718502 +++++++++++++++++++++to 0.00718502
Heightened Def Con from 0.00718502 to 0.00718502
Heightened Def Con from 0.00720502 to 0.00720502
Heightened Def Con from 0.00720502 +++++++++++++++++++++to 0.00720502
Heightened Def Con from 0.00720502 to 0.00720502
Heightened Def Con from 0.00722502 +++++++++++++++++++++to 0.00722502
Heightened Def Con from 0.00722502 to 0.00722502
Heightened Def Con from 0.00724502 +++++++++++++++++++to 0.00724502
Heightened Def Con from 0.00724502 to 0.00724502
Heightened Def Con from 0.00726502 to 0.00726502
Heightened Def Con from 0.00726502 +++++++++++++++++++++to 0.00726502
Heightened Def Con from 0.00726502 to 0.00726502
Heightened Def Con from 0.00728502 +++++++++++++++++++to 0.00728502
Heightened Def Con from 0.00728502 to 0.00728502
Heightened Def Con from 0.00730502 to 0.00730502
Heightened Def Con from 0.00730502 +++++++++++++++++++++to 0.00730502
Heightened Def Con from 0.00730502 to 0.00730502
Heightened Def Con from 0.00732502 +++++++++++++++++++++to 0.00732502
Heightened Def Con from 0.00732502 to 0.00732502
Heightened Def Con from 0.00734502 +++++++++++++++++++++to 0.00734502
Heightened Def Con from 0.00736502 +++++++++++++++++++++to 0.00736502
Heightened Def Con from 0.00738502 +++++++++++++++++++++to 0.00738502
Heightened Def Con from 0.00738502 to 0.00738502
Heightened Def Con from 0.00740502 +++++++++++++++++++++to 0.00740502
Heightened Def Con from 0.00742502 +++++++++++++++++++to 0.00742502
Heightened Def Con from 0.00742502 to 0.00742502
Heightened Def Con from 0.00744502 +++++++++++++++++++++to 0.00744502
Heightened Def Con from 0.00744502 to 0.00744502
Heightened Def Con from 0.00746502 +++++++++++++++++++++to 0.00746502
Heightened Def Con from 0.00746502 to 0.00746502
Heightened Def Con from 0.00748502 ++++++++++++++++++++to 0.00748502
Heightened Def Con from 0.00748502 to 0.00748502
Heightened Def Con from 0.00750502 ++++++++++++++++++++to 0.00750502
Heightened Def Con from 0.00750502 to 0.00750502
Heightened Def Con from 0.00752502 +++++++++++++++++++++to 0.00752502
Heightened Def Con from 0.00752502 to 0.00752502
Heightened Def Con from 0.00754502 +++++++++++++++++++++to 0.00754502
Heightened Def Con from 0.00754502 to 0.00754502
Heightened Def Con from 0.00756502 to 0.00756502
Heightened Def Con from 0.00756502 +++++++++++++++++++++to 0.00756502
Heightened Def Con from 0.00756502 to 0.00756502
Heightened Def Con from 0.00758502 to 0.00758502
Heightened Def Con from 0.00758502 +++++++++++++++++++++to 0.00758502
Heightened Def Con from 0.00758502 to 0.00758502
Heightened Def Con from 0.00760502 +++++++++++++++++++++to 0.00760502
Heightened Def Con from 0.00762502 +++++++++++++++++++++to 0.00762502
Heightened Def Con from 0.00764502 +++++++++++++++++++to 0.00764502
Heightened Def Con from 0.00764502 to 0.00764502
Heightened Def Con from 0.00766502 to 0.00766502
Heightened Def Con from 0.00766502 +++++++++++++++++++++to 0.00766502
Heightened Def Con from 0.00766502 to 0.00766502
Heightened Def Con from 0.00768502 to 0.00768502
Heightened Def Con from 0.00768502 +++++++++++++++++++++to 0.00768502
Heightened Def Con from 0.00768502 to 0.00768502
Heightened Def Con from 0.00770502 +++++++++++++++++++++to 0.00770502
Heightened Def Con from 0.00770502 to 0.00770502
Heightened Def Con from 0.00772502 +++++++++++++++++++++to 0.00772502
Heightened Def Con from 0.00772502 to 0.00772502
Heightened Def Con from 0.00774502 +++++++++++++++++++++to 0.00774502
Heightened Def Con from 0.00774502 to 0.00774502
Heightened Def Con from 0.00776502 +++++++++++++++++++++to 0.00776502
Heightened Def Con from 0.00778502 +++++++++++++++++++++to 0.00778502
Heightened Def Con from 0.00778502 to 0.00778502
Heightened Def Con from 0.00780502 ++++++++++++++++++++to 0.00780502
Heightened Def Con from 0.00780502 to 0.00780502
Heightened Def Con from 0.00782502 +++++++++++++++++++++to 0.00782502
Heightened Def Con from 0.00784502 +++++++++++++++++++++to 0.00784502
Heightened Def Con from 0.00784502 to 0.00784502
Heightened Def Con from 0.00786502 +++++++++++++++++++++to 0.00786502
Heightened Def Con from 0.00786502 to 0.00786502
Heightened Def Con from 0.00788502 +++++++++++++++++++++to 0.00788502
Heightened Def Con from 0.00788502 to 0.00788502
Heightened Def Con from 0.00790502 ++++++++++++++++++++to 0.00790502
Heightened Def Con from 0.00790502 to 0.00790502
Heightened Def Con from 0.00792502 to 0.00792502
Heightened Def Con from 0.00792502 +++++++++++++++++++++to 0.00792502
Heightened Def Con from 0.00792502 to 0.00792502
Heightened Def Con from 0.00794502 +++++++++++++++++++++to 0.00794502
Heightened Def Con from 0.00794502 to 0.00794502
Heightened Def Con from 0.00796502 to 0.00796502
Heightened Def Con from 0.00796502 +++++++++++++++++++++to 0.00796502
Heightened Def Con from 0.00796502 to 0.00796502
Heightened Def Con from 0.00798502 +++++++++++++++++++++to 0.00798502
Heightened Def Con from 0.00800502 +++++++++++++++++to 0.00800502
Heightened Def Con from 0.00800502 to 0.00800502
Heightened Def Con from 0.00802502 +++++++++++++++++++++to 0.00802502
Heightened Def Con from 0.00802502 to 0.00802502
Heightened Def Con from 0.00804502 +++++++++++++++++++++to 0.00804502
Heightened Def Con from 0.00806502 to 0.00806502
Heightened Def Con from 0.00806502 +++++++++++++++++++++to 0.00806502
Heightened Def Con from 0.00806502 to 0.00806502
Heightened Def Con from 0.00808502 +++++++++++++++++++++to 0.00808502
Heightened Def Con from 0.00810502 +++++++++++++++++++++to 0.00810502
Heightened Def Con from 0.00810502 to 0.00810502
Heightened Def Con from 0.00812502 +++++++++++++++++++++to 0.00812502
Heightened Def Con from 0.00814502 +++++++++++++++++++++to 0.00814502
Heightened Def Con from 0.00814502 to 0.00814502
Heightened Def Con from 0.00816502 +++++++++++++++++++++to 0.00816502
Heightened Def Con from 0.00816502 to 0.00816502
Heightened Def Con from 0.00818502 to 0.00818502
Heightened Def Con from 0.00818502 +++++++++++++++++++++to 0.00818502
Heightened Def Con from 0.00818502 to 0.00818502
Heightened Def Con from 0.00820502 +++++++++++++++++++++to 0.00820502
Heightened Def Con from 0.00820502 to 0.00820502
Heightened Def Con from 0.00822502 to 0.00822502
Heightened Def Con from 0.00822502 +++++++++++++++++++++to 0.00822502
Heightened Def Con from 0.00822502 to 0.00822502
Heightened Def Con from 0.00824502 to 0.00824502
Heightened Def Con from 0.00824502 +++++++++++++++++++++to 0.00824502
Heightened Def Con from 0.00824502 to 0.00824502
Heightened Def Con from 0.00826502 +++++++++++++++++++++to 0.00826502
Heightened Def Con from 0.00828502 +++++++++++++++++++++to 0.00828502
Heightened Def Con from 0.00830502 to 0.00830502
Heightened Def Con from 0.00830502 ++++++++++++++++++++to 0.00830502
Heightened Def Con from 0.00830502 to 0.00830502
Heightened Def Con from 0.00832502 ++++++++++++++++++++to 0.00832502
Heightened Def Con from 0.00832502 to 0.00832502
Heightened Def Con from 0.00834502 +++++++++++++++++++++to 0.00834502
Heightened Def Con from 0.00834502 to 0.00834502
Heightened Def Con from 0.00836502 +++++++++++++++++++++to 0.00836502
Heightened Def Con from 0.00836502 to 0.00836502
Heightened Def Con from 0.00838502 +++++++++++++++++++++to 0.00838502
Heightened Def Con from 0.00838502 to 0.00838502
Heightened Def Con from 0.00840502 +++++++++++++++++++to 0.00840502
Heightened Def Con from 0.00840502 to 0.00840502
Heightened Def Con from 0.00842502 +++++++++++++++++++++to 0.00842502
Heightened Def Con from 0.00842502 to 0.00842502
Heightened Def Con from 0.00844502 +++++++++++++++++++++to 0.00844502
Heightened Def Con from 0.00844502 to 0.00844502
Heightened Def Con from 0.00846502 +++++++++++++++++++++to 0.00846502
Heightened Def Con from 0.00846502 to 0.00846502
Heightened Def Con from 0.00848502 +++++++++++++++++++++to 0.00848502
Heightened Def Con from 0.00848502 to 0.00848502
Heightened Def Con from 0.00850502 to 0.00850502
Heightened Def Con from 0.00850502 +++++++++++++++++++++to 0.00850502
Heightened Def Con from 0.00852502 +++++++++++++++++++to 0.00852502
Heightened Def Con from 0.00852502 to 0.00852502
Heightened Def Con from 0.00854502 ++++++++++++++++++++to 0.00854502
Heightened Def Con from 0.00854502 to 0.00854502
Heightened Def Con from 0.00856502 +++++++++++++++++++++to 0.00856502
Heightened Def Con from 0.00856502 to 0.00856502
Heightened Def Con from 0.00858502 +++++++++++++++++++++to 0.00858502
Heightened Def Con from 0.00858502 to 0.00858502
Heightened Def Con from 0.00860502 to 0.00860502
Heightened Def Con from 0.00860502 +++++++++++++++++++++to 0.00860502
Heightened Def Con from 0.00860502 to 0.00860502
Heightened Def Con from 0.00862502 to 0.00862502
Heightened Def Con from 0.00862502 +++++++++++++++++++++to 0.00862502
Heightened Def Con from 0.00862502 to 0.00862502
Heightened Def Con from 0.00864502 ++++++++++++++++++++to 0.00864502
Heightened Def Con from 0.00864502 to 0.00864502
Heightened Def Con from 0.00866502 +++++++++++++++++++++to 0.00866502
Heightened Def Con from 0.00866502 to 0.00866502
Heightened Def Con from 0.00868502 ++++++++++++++++++++to 0.00868502
Heightened Def Con from 0.00868502 to 0.00868502
Heightened Def Con from 0.00870502 to 0.00870502
Heightened Def Con from 0.00870502 +++++++++++++++++++to 0.00870502
Heightened Def Con from 0.00870502 to 0.00870502
Heightened Def Con from 0.00872502 +++++++++++++++++++++to 0.00872502
Heightened Def Con from 0.00872502 to 0.00872502
Heightened Def Con from 0.00874502 +++++++++++++++++++++to 0.00874502
Heightened Def Con from 0.00874502 to 0.00874502
Heightened Def Con from 0.00876502 ++++++++++++++++++++to 0.00876502
Heightened Def Con from 0.00876502 to 0.00876502
Heightened Def Con from 0.00878502 +++++++++++++++++++++to 0.00878502
Heightened Def Con from 0.00878502 to 0.00878502
Heightened Def Con from 0.00880502 to 0.00880502
Heightened Def Con from 0.00880502 ++++++++++++++++to 0.00880502
Heightened Def Con from 0.00880502 to 0.00880502
Heightened Def Con from 0.00882502 +++++++++++++++++++++to 0.00882502
Heightened Def Con from 0.00882502 to 0.00882502
Heightened Def Con from 0.00884502 to 0.00884502
Heightened Def Con from 0.00884502 +++++++++++++++++++++to 0.00884502
Heightened Def Con from 0.00884502 to 0.00884502
Heightened Def Con from 0.00886502 +++++++++++++++++++++to 0.00886502
Heightened Def Con from 0.00886502 to 0.00886502
Heightened Def Con from 0.00888502 to 0.00888502
Heightened Def Con from 0.00888502 ++++++++++++++++++to 0.00888502
Heightened Def Con from 0.00888502 to 0.00888502
Heightened Def Con from 0.00890502 to 0.00890502
Heightened Def Con from 0.00890502 +++++++++++++++++++++to 0.00890502
Heightened Def Con from 0.00890502 to 0.00890502
Heightened Def Con from 0.00892502 +++++++++++++++++++++to 0.00892502
Heightened Def Con from 0.00892502 to 0.00892502
Heightened Def Con from 0.00894502 +++++++++++++++++++++to 0.00894502
Heightened Def Con from 0.00894502 to 0.00894502
Heightened Def Con from 0.00896502 +++++++++++++++++++++to 0.00896502
Heightened Def Con from 0.00896502 to 0.00896502
Heightened Def Con from 0.00898502 +++++++++++++++++++++to 0.00898502
Heightened Def Con from 0.00898502 to 0.00898502
Heightened Def Con from 0.00900502 +++++++++++++++++++++to 0.00900502
Heightened Def Con from 0.00902502 +++++++++++++++to 0.00902502
Heightened Def Con from 0.00902502 to 0.00902502
Heightened Def Con from 0.00904502 +++++++++++++++++++++to 0.00904502
Heightened Def Con from 0.00904502 to 0.00904502
Heightened Def Con from 0.00906502 to 0.00906502
Heightened Def Con from 0.00906502 +++++to 0.00906502
Heightened Def Con from 0.00906502 to 0.00906502
Heightened Def Con from 0.00908502 to 0.00908502
Heightened Def Con from 0.00908502 +++++++++++++++++++++to 0.00908502
Heightened Def Con from 0.00910502 +++++++++++++++++++++to 0.00910502
Heightened Def Con from 0.00910502 to 0.00910502
Heightened Def Con from 0.00912502 +++++++++++++++++++++to 0.00912502
Heightened Def Con from 0.00912502 to 0.00912502
Heightened Def Con from 0.00914502 ++++++++++++++++++++to 0.00914502
Heightened Def Con from 0.00914502 to 0.00914502
Heightened Def Con from 0.00916502 +++++++++++++++++to 0.00916502
Heightened Def Con from 0.00916502 to 0.00916502
Heightened Def Con from 0.00918502 +++++++++++++++++++++to 0.00918502
Heightened Def Con from 0.00918502 to 0.00918502
Heightened Def Con from 0.00920502 +++++++++++++++++++++to 0.00920502
Heightened Def Con from 0.00920502 to 0.00920502
Heightened Def Con from 0.00922502 +++++to 0.00922502
Heightened Def Con from 0.00922502 to 0.00922502
Heightened Def Con from 0.00924502 to 0.00924502
Heightened Def Con from 0.00924502 +++++++++++++++++++++to 0.00924502
Heightened Def Con from 0.00924502 to 0.00924502
Heightened Def Con from 0.00926502 +++++++++++++++++++++to 0.00926502
Heightened Def Con from 0.00926502 to 0.00926502
Heightened Def Con from 0.00928502 +++++++++++++++++++++to 0.00928502
Heightened Def Con from 0.00928502 to 0.00928502
Heightened Def Con from 0.00930502 +++++++++++++++++++++to 0.00930502
Heightened Def Con from 0.00932502 +++++++++++++++++++++to 0.00932502
Heightened Def Con from 0.00932502 to 0.00932502
Heightened Def Con from 0.00934502 +++++++++++++++++++++to 0.00934502
Heightened Def Con from 0.00934502 to 0.00934502
Heightened Def Con from 0.00936502 ++++++++++++++++++++to 0.00936502
Heightened Def Con from 0.00936502 to 0.00936502
Heightened Def Con from 0.00938502 +++++++++++++++++++++to 0.00938502
Heightened Def Con from 0.00938502 to 0.00938502
Heightened Def Con from 0.00940502 +++++++++++++++++++++to 0.00940502
Heightened Def Con from 0.00940502 to 0.00940502
Heightened Def Con from 0.00942502 +++++++++++++++++++++to 0.00942502
Heightened Def Con from 0.00942502 to 0.00942502
Heightened Def Con from 0.00944502 +++++++++++++++++++++to 0.00944502
Heightened Def Con from 0.00944502 to 0.00944502
Heightened Def Con from 0.00946502 +++++++++++++++++++++to 0.00946502
Heightened Def Con from 0.00946502 to 0.00946502
Heightened Def Con from 0.00948502 +++++++++++++++++++++to 0.00948502
Heightened Def Con from 0.00948502 to 0.00948502
Heightened Def Con from 0.00950502 +++++++++++++++++++++to 0.00950502
Heightened Def Con from 0.00950502 to 0.00950502
Heightened Def Con from 0.00952502 ++++++++++++++++++to 0.00952502
Heightened Def Con from 0.00952502 to 0.00952502
Heightened Def Con from 0.00954502 +++++++++++++++++++++to 0.00954502
Heightened Def Con from 0.00954502 to 0.00954502
Heightened Def Con from 0.00956502 ++++++++++++++++++++to 0.00956502
Heightened Def Con from 0.00956502 to 0.00956502
Heightened Def Con from 0.00958502 ++++++++++++++++++++to 0.00958502
Heightened Def Con from 0.00958502 to 0.00958502
Heightened Def Con from 0.00960502 +++++++++++++++++++++to 0.00960502
Heightened Def Con from 0.00960502 to 0.00960502
Heightened Def Con from 0.00962502 +++++++++++++++++++++to 0.00962502
Heightened Def Con from 0.00962502 to 0.00962502
Heightened Def Con from 0.00964502 +++++++++++++++++to 0.00964502
Heightened Def Con from 0.00964502 to 0.00964502
Heightened Def Con from 0.00966502 +++++++++++++++++++++to 0.00966502
Heightened Def Con from 0.00968502 +++++++++++++++++++++to 0.00968502
Heightened Def Con from 0.00970502 to 0.00970502
Heightened Def Con from 0.00970502 +++++++++++++++++++++to 0.00970502
Heightened Def Con from 0.00972502 to 0.00972502
Heightened Def Con from 0.00972502 +++++++++++++++++++++to 0.00972502
Heightened Def Con from 0.00972502 to 0.00972502
Heightened Def Con from 0.00974502 ++++++++++++++++++++to 0.00974502
Heightened Def Con from 0.00974502 to 0.00974502
Heightened Def Con from 0.00976502 +++++++++++++++++++++to 0.00976502
Heightened Def Con from 0.00978502 ++++++++++++++++++++to 0.00978502
Heightened Def Con from 0.00978502 to 0.00978502
Heightened Def Con from 0.00980502 +++++++++++++++++++++to 0.00980502
Heightened Def Con from 0.00980502 to 0.00980502
Heightened Def Con from 0.00982502 +++++++++++++++++++++to 0.00982502
Heightened Def Con from 0.00982502 to 0.00982502
Heightened Def Con from 0.00984502 +++++++++++++++++++++to 0.00984502
Heightened Def Con from 0.00984502 to 0.00984502
Heightened Def Con from 0.00986502 ++to 0.00986502
Heightened Def Con from 0.00986502 to 0.00986502
Heightened Def Con from 0.00988502 ++++++++++++++++++to 0.00988502
Heightened Def Con from 0.00988502 to 0.00988502
Heightened Def Con from 0.00990502 +++++++++++++++++++++to 0.00990502
Heightened Def Con from 0.00990502 to 0.00990502
Heightened Def Con from 0.00992502 to 0.00992502
Heightened Def Con from 0.00992502 +++++++++++++++++++++to 0.00992502
Heightened Def Con from 0.00992502 to 0.00992502
Heightened Def Con from 0.00994502 +++++++++++++++++++++to 0.00994502
Heightened Def Con from 0.00994502 to 0.00994502
Heightened Def Con from 0.00996502 +++++++++++++++++++++to 0.00996502
Heightened Def Con from 0.00996502 to 0.00996502
Heightened Def Con from 0.00998502 +++++++++++++++++++++to 0.00998502
Heightened Def Con from 0.00998502 to 0.00998502
Heightened Def Con from 0.010005 to 0.010005
Heightened Def Con from 0.010005 +++++++++++++++++++++to 0.010005
Heightened Def Con from 0.010005 to 0.010005
Heightened Def Con from 0.010025 +++++++++++++++++++++to 0.010025
Heightened Def Con from 0.010045 +++++++++++++++++++++to 0.010045
Heightened Def Con from 0.010045 to 0.010045
Heightened Def Con from 0.010065 +++++++++++++++++++++to 0.010065
Heightened Def Con from 0.010065 to 0.010065
Heightened Def Con from 0.010085 ++++++++++++++++++++to 0.010085
Heightened Def Con from 0.010085 to 0.010085
Heightened Def Con from 0.010105 +++++++++++++++++++++to 0.010105
Heightened Def Con from 0.010105 to 0.010105
Heightened Def Con from 0.010125 +++++++++++++++++++++to 0.010125
Heightened Def Con from 0.010145 +++++++++++++++++++to 0.010145
Heightened Def Con from 0.010145 to 0.010145
Heightened Def Con from 0.010165 to 0.010165
Heightened Def Con from 0.010165 +++++++++++++++++++++to 0.010165
Heightened Def Con from 0.010165 to 0.010165
Heightened Def Con from 0.010185 to 0.010185
Heightened Def Con from 0.010185 +++++++++++++++++++++to 0.010185
Heightened Def Con from 0.010205 +++++++++++++++++++++to 0.010205
Heightened Def Con from 0.010205 to 0.010205
Heightened Def Con from 0.010225 +++++++++++++++++++++to 0.010225
Heightened Def Con from 0.010245 +++++++++++++++++++++to 0.010245
Heightened Def Con from 0.010245 to 0.010245
Heightened Def Con from 0.010265 +++++++++++++++++++++to 0.010265
Heightened Def Con from 0.010285 +++++++++++++++++++++to 0.010285
Heightened Def Con from 0.010305 +++++++++++++++++++++to 0.010305
Heightened Def Con from 0.010305 to 0.010305
Heightened Def Con from 0.010325 +++++++++++++++++++++to 0.010325
Heightened Def Con from 0.010325 to 0.010325
Heightened Def Con from 0.010345 +++++++++++++++++++++to 0.010345
Heightened Def Con from 0.010345 to 0.010345
Heightened Def Con from 0.010365 +++++++++++++++++++++to 0.010365
Heightened Def Con from 0.010385 to 0.010385
Heightened Def Con from 0.010385 +++++++++++++++++++++to 0.010385
Heightened Def Con from 0.010385 to 0.010385
Heightened Def Con from 0.010405 +++++++++++++++++++++to 0.010405
Heightened Def Con from 0.010405 to 0.010405
Heightened Def Con from 0.010425 +++++++++++++++++++++to 0.010425
Heightened Def Con from 0.010445 ++++++++++++++++++++to 0.010445
Heightened Def Con from 0.010445 to 0.010445
Heightened Def Con from 0.010465 +++++++++++++++++++++to 0.010465
Heightened Def Con from 0.010465 to 0.010465
Heightened Def Con from 0.010485 +++++++++++++++++++++to 0.010485
Heightened Def Con from 0.010505 to 0.010505
Heightened Def Con from 0.010505 +++++++++++++++++++to 0.010505
Heightened Def Con from 0.010505 to 0.010505
Heightened Def Con from 0.010525 ++++++++++++++++++++to 0.010525
Heightened Def Con from 0.010525 to 0.010525
Heightened Def Con from 0.010545 +++++++++++++++++++++to 0.010545
Heightened Def Con from 0.010565 +++++++++++++++++++++to 0.010565
Heightened Def Con from 0.010585 +++++++++++++++++++++to 0.010585
Heightened Def Con from 0.010585 to 0.010585
Heightened Def Con from 0.010605 ++++++++++++++++++++to 0.010605
Heightened Def Con from 0.010605 to 0.010605
Heightened Def Con from 0.010625 to 0.010625
Heightened Def Con from 0.010625 +++++++++++++++++++++to 0.010625
Heightened Def Con from 0.010625 to 0.010625
Heightened Def Con from 0.010645 +++++++++++++++++++++to 0.010645
Heightened Def Con from 0.010665 ++++++++++++++++++++to 0.010665
Heightened Def Con from 0.010665 to 0.010665
Heightened Def Con from 0.010685 ++++++++++++++++++++to 0.010685
Heightened Def Con from 0.010685 to 0.010685
Heightened Def Con from 0.010705 +++++++++++++++++++++to 0.010705
Heightened Def Con from 0.010725 ++++++++++++++++++++to 0.010725
Heightened Def Con from 0.010725 to 0.010725
Heightened Def Con from 0.010745 to 0.010745
Heightened Def Con from 0.010745 +++++++++++++++++++++to 0.010745
Heightened Def Con from 0.010745 to 0.010745
Heightened Def Con from 0.010765 to 0.010765
Heightened Def Con from 0.010765 +++++++++++++++++++++to 0.010765
Heightened Def Con from 0.010765 to 0.010765
Heightened Def Con from 0.010785 +++++++++++++++++++++to 0.010785
Heightened Def Con from 0.010785 to 0.010785
Heightened Def Con from 0.010805 to 0.010805
Heightened Def Con from 0.010805 +++++++++++++++++++++to 0.010805
Heightened Def Con from 0.010805 to 0.010805
Heightened Def Con from 0.010825 +++++++++++++++++++++to 0.010825
Heightened Def Con from 0.010845 +++++++++++++++++++++to 0.010845
Heightened Def Con from 0.010845 to 0.010845
Heightened Def Con from 0.010865 +++++++++++++++++++++to 0.010865
Heightened Def Con from 0.010865 to 0.010865
Heightened Def Con from 0.010885 +++++++++++++++++++++to 0.010885
Heightened Def Con from 0.010905 +++++++++++++++++++++to 0.010905
Heightened Def Con from 0.010905 to 0.010905
Heightened Def Con from 0.010925 +++++++++++++++++++++to 0.010925
Heightened Def Con from 0.010925 to 0.010925
Heightened Def Con from 0.010945 to 0.010945
Heightened Def Con from 0.010945 +++++++++++++++++++++to 0.010945
Heightened Def Con from 0.010945 to 0.010945
Heightened Def Con from 0.010965 to 0.010965
Heightened Def Con from 0.010965 +++++++++++++++++++++to 0.010965
Heightened Def Con from 0.010965 to 0.010965
Heightened Def Con from 0.010985 +++++++++++++++++++++to 0.010985
Heightened Def Con from 0.011005 ++++++++++++++++++to 0.011005
Heightened Def Con from 0.011005 to 0.011005
Heightened Def Con from 0.011025 to 0.011025
Heightened Def Con from 0.011025 +++++++++++++++++++++to 0.011025
Heightened Def Con from 0.011025 to 0.011025
Heightened Def Con from 0.011045 to 0.011045
Heightened Def Con from 0.011045 +++++++++++++++++++++to 0.011045
Heightened Def Con from 0.011045 to 0.011045
Heightened Def Con from 0.011065 ++++++++++++++++++++to 0.011065
Heightened Def Con from 0.011065 to 0.011065
Heightened Def Con from 0.011085 +++++++++++++++++++++to 0.011085
Heightened Def Con from 0.011085 to 0.011085
Heightened Def Con from 0.011105 to 0.011105
Heightened Def Con from 0.011105 ++++++++++++++++++++to 0.011105
Heightened Def Con from 0.011105 to 0.011105
Heightened Def Con from 0.011125 +++++++++++++++++++to 0.011125
Heightened Def Con from 0.011125 to 0.011125
Heightened Def Con from 0.011145 to 0.011145
Heightened Def Con from 0.011145 +++++++++++++++++++++to 0.011145
Heightened Def Con from 0.011145 to 0.011145
Heightened Def Con from 0.011165 to 0.011165
Heightened Def Con from 0.011165 ++++++++++++++++++++to 0.011165
Heightened Def Con from 0.011165 to 0.011165
Heightened Def Con from 0.011185 to 0.011185
Heightened Def Con from 0.011185 +++++++++++++++++++++to 0.011185
Heightened Def Con from 0.011185 to 0.011185
Heightened Def Con from 0.011205 to 0.011205
Heightened Def Con from 0.011205 ++++++++++++++++++++to 0.011205
Heightened Def Con from 0.011205 to 0.011205
Heightened Def Con from 0.011225 +++++++++++++++++++++to 0.011225
Heightened Def Con from 0.011225 to 0.011225
Heightened Def Con from 0.011245 to 0.011245
Heightened Def Con from 0.011245 +++++++++++++++++++++to 0.011245
Heightened Def Con from 0.011245 to 0.011245
Heightened Def Con from 0.011265 +++++++++++++++++++++to 0.011265
Heightened Def Con from 0.011285 +++++++++++++++++++++to 0.011285
Heightened Def Con from 0.011305 +++++++++++++++++++++to 0.011305
Heightened Def Con from 0.011305 to 0.011305
Heightened Def Con from 0.011325 +++++++++++++++++++++to 0.011325
Heightened Def Con from 0.011325 to 0.011325
Heightened Def Con from 0.011345 to 0.011345
Heightened Def Con from 0.011345 +++++++++++++++++++++to 0.011345
Heightened Def Con from 0.011345 to 0.011345
Heightened Def Con from 0.011365 +++++++++++++++++++++to 0.011365
Heightened Def Con from 0.011365 to 0.011365
Heightened Def Con from 0.011385 +++++++++++++++++++++to 0.011385
Heightened Def Con from 0.011385 to 0.011385
Heightened Def Con from 0.011405 ++++++++++++++++++++to 0.011405
Heightened Def Con from 0.011405 to 0.011405
Heightened Def Con from 0.011425 ++++++++++++++++++++to 0.011425
Heightened Def Con from 0.011425 to 0.011425
Heightened Def Con from 0.011445 +++++++++++++++++++++to 0.011445
Heightened Def Con from 0.011445 to 0.011445
Heightened Def Con from 0.011465 +++++++++++++++++++++to 0.011465
Heightened Def Con from 0.011465 to 0.011465
Heightened Def Con from 0.011485 +++++++++++++++++++++to 0.011485
Heightened Def Con from 0.011505 +++++++++++++++++++++to 0.011505
Heightened Def Con from 0.011505 to 0.011505
Heightened Def Con from 0.011525 to 0.011525
Heightened Def Con from 0.011525 +++++++++++++++++++++to 0.011525
Heightened Def Con from 0.011525 to 0.011525
Heightened Def Con from 0.011545 +++++++++++++++++++++to 0.011545
Heightened Def Con from 0.011565 +++++++++++++++++++++to 0.011565
Heightened Def Con from 0.011585 +++++++++++++++++++++to 0.011585
Heightened Def Con from 0.011585 to 0.011585
Heightened Def Con from 0.011605 +++++++++++++++++++++to 0.011605
Heightened Def Con from 0.011605 to 0.011605
Heightened Def Con from 0.011625 +++++++++++++++++++++to 0.011625
Heightened Def Con from 0.011645 +++++++++++++++++++++to 0.011645
Heightened Def Con from 0.011645 to 0.011645
Heightened Def Con from 0.011665 +++++++++++++++++++to 0.011665
Heightened Def Con from 0.011665 to 0.011665
Heightened Def Con from 0.011685 to 0.011685
Heightened Def Con from 0.011685 +++++++++++++++++++++to 0.011685
Heightened Def Con from 0.011705 +++++++++++++++++++++to 0.011705
Heightened Def Con from 0.011705 to 0.011705
Heightened Def Con from 0.011725 to 0.011725
Heightened Def Con from 0.011725 +++++++++++++++++++++to 0.011725
Heightened Def Con from 0.011725 to 0.011725
Heightened Def Con from 0.011745 +++++++++++++++++++++to 0.011745
Heightened Def Con from 0.011745 to 0.011745
Heightened Def Con from 0.011765 to 0.011765
Heightened Def Con from 0.011765 +++++++++++++++++++++to 0.011765
Heightened Def Con from 0.011765 to 0.011765
Heightened Def Con from 0.011785 to 0.011785
Heightened Def Con from 0.011785 +++++++++++++++++++++to 0.011785
Heightened Def Con from 0.011805 to 0.011805
Heightened Def Con from 0.011805 ++++++++++++++++++++to 0.011805
Heightened Def Con from 0.011805 to 0.011805
Heightened Def Con from 0.011825 +++++++++++++++++++++to 0.011825
Heightened Def Con from 0.011825 to 0.011825
Heightened Def Con from 0.011845 +++++++++++++++++++++to 0.011845
Heightened Def Con from 0.011845 to 0.011845
Heightened Def Con from 0.011865 +++++++++++++++++++++to 0.011865
Heightened Def Con from 0.011865 to 0.011865
Heightened Def Con from 0.011885 +++++++++++++++++++++to 0.011885
Heightened Def Con from 0.011885 to 0.011885
Heightened Def Con from 0.011905 to 0.011905
Heightened Def Con from 0.011905 +++++++++++++++++++++to 0.011905
Heightened Def Con from 0.011905 to 0.011905
Heightened Def Con from 0.011925 ++++++++++++++++++++to 0.011925
Heightened Def Con from 0.011925 to 0.011925
Heightened Def Con from 0.011945 ++++++++++++++++++++to 0.011945
Heightened Def Con from 0.011945 to 0.011945
Heightened Def Con from 0.011965 ++++++++++++++++++to 0.011965
Heightened Def Con from 0.011965 to 0.011965
Heightened Def Con from 0.011985 +++++++++++++++++++++to 0.011985
Heightened Def Con from 0.011985 to 0.011985
Heightened Def Con from 0.012005 +++++++++++++++++++++to 0.012005
Heightened Def Con from 0.012005 to 0.012005
Heightened Def Con from 0.012025 +++++++++++++++++++++to 0.012025
Heightened Def Con from 0.012045 to 0.012045
Heightened Def Con from 0.012045 +++++++++++++++++++++to 0.012045
Heightened Def Con from 0.012045 to 0.012045
Heightened Def Con from 0.012065 to 0.012065
Heightened Def Con from 0.012065 +++++++++++++++++++++to 0.012065
Heightened Def Con from 0.012065 to 0.012065
Heightened Def Con from 0.012085 to 0.012085
Heightened Def Con from 0.012085 +++++++++++++++++++++to 0.012085
Heightened Def Con from 0.012085 to 0.012085
Heightened Def Con from 0.012105 +++++++++++++++++++++to 0.012105
Heightened Def Con from 0.012125 +++++++++++++++++++++to 0.012125
Heightened Def Con from 0.012145 to 0.012145
Heightened Def Con from 0.012145 ++++++++++++++++++++to 0.012145
Heightened Def Con from 0.012145 to 0.012145
Heightened Def Con from 0.012165 to 0.012165
Heightened Def Con from 0.012165 +++++++++++++++++++++to 0.012165
Heightened Def Con from 0.012165 to 0.012165
Heightened Def Con from 0.012185 +++++++++++++++++++++to 0.012185
Heightened Def Con from 0.012185 to 0.012185
Heightened Def Con from 0.012205 +++++++++++++++++++++to 0.012205
Heightened Def Con from 0.012205 to 0.012205
Heightened Def Con from 0.012225 +++++++++++++++++++++to 0.012225
Heightened Def Con from 0.012225 to 0.012225
Heightened Def Con from 0.012245 to 0.012245
Heightened Def Con from 0.012245 +++++++++++++++++++++to 0.012245
Heightened Def Con from 0.012245 to 0.012245
Heightened Def Con from 0.012265 +++++++++++++++++++++to 0.012265
Heightened Def Con from 0.012285 +++++++++++++++++++++to 0.012285
Heightened Def Con from 0.012305 ++++++++++++++++++++to 0.012305
Heightened Def Con from 0.012305 to 0.012305
Heightened Def Con from 0.012325 +++++++++++++++++++++to 0.012325
Heightened Def Con from 0.012345 to 0.012345
Heightened Def Con from 0.012345 +++++++++++++++++++++to 0.012345
Heightened Def Con from 0.012345 to 0.012345
Heightened Def Con from 0.012365 to 0.012365
Heightened Def Con from 0.012365 +++++++++++++++++++++to 0.012365
Heightened Def Con from 0.012365 to 0.012365
Heightened Def Con from 0.012385 to 0.012385
Heightened Def Con from 0.012385 +++++++++++++++++++++to 0.012385
Heightened Def Con from 0.012405 +++++++++++++++++++++to 0.012405
Heightened Def Con from 0.012425 to 0.012425
Heightened Def Con from 0.012425 +++++++++++++++++++++to 0.012425
Heightened Def Con from 0.012425 to 0.012425
Heightened Def Con from 0.012445 to 0.012445
Heightened Def Con from 0.012445 +++++++++++++++++++++to 0.012445
Heightened Def Con from 0.012445 to 0.012445
Heightened Def Con from 0.012465 +++++++++++++++++++++to 0.012465
Heightened Def Con from 0.012465 to 0.012465
Heightened Def Con from 0.012485 to 0.012485
Heightened Def Con from 0.012485 +++++++++++++++++++++to 0.012485
Heightened Def Con from 0.012485 to 0.012485
Heightened Def Con from 0.012505 to 0.012505
Heightened Def Con from 0.012505 +++++++++++++++++++++to 0.012505
Heightened Def Con from 0.012505 to 0.012505
Heightened Def Con from 0.012525 +++++++++++++++++++++to 0.012525
Heightened Def Con from 0.012525 to 0.012525
Heightened Def Con from 0.012545 +++++++++++++++++++++to 0.012545
Heightened Def Con from 0.012545 to 0.012545
Heightened Def Con from 0.012565 +++++++++++++++++++++to 0.012565
Heightened Def Con from 0.012565 to 0.012565
Heightened Def Con from 0.012585 to 0.012585
Heightened Def Con from 0.012585 +++++++++++++++++++to 0.012585
Heightened Def Con from 0.012585 to 0.012585
Heightened Def Con from 0.012605 to 0.012605
Heightened Def Con from 0.012605 +++++++++++++++++++++to 0.012605
Heightened Def Con from 0.012605 to 0.012605
Heightened Def Con from 0.012625 +++++++++++++++++++++to 0.012625
Heightened Def Con from 0.012645 to 0.012645
Heightened Def Con from 0.012645 +++++++++++++++++++++to 0.012645
Heightened Def Con from 0.012665 +++++++++++++++++++++to 0.012665
Heightened Def Con from 0.012665 to 0.012665
Heightened Def Con from 0.012685 +++++++++++++++++++++to 0.012685
Heightened Def Con from 0.012685 to 0.012685
Heightened Def Con from 0.012705 +++++++++++++++++++++to 0.012705
Heightened Def Con from 0.012705 to 0.012705
Heightened Def Con from 0.012725 +++++++++++++++++++++to 0.012725
Heightened Def Con from 0.012725 to 0.012725
Heightened Def Con from 0.012745 +++++++++++++++++++++to 0.012745
Heightened Def Con from 0.012745 to 0.012745
Heightened Def Con from 0.012765 +++++++++++++++++++++to 0.012765
Heightened Def Con from 0.012765 to 0.012765
Heightened Def Con from 0.012785 +++++++++++++++++++++to 0.012785
Heightened Def Con from 0.012785 to 0.012785
Heightened Def Con from 0.012805 +++++++++++++++++++++to 0.012805
Heightened Def Con from 0.012805 to 0.012805
Heightened Def Con from 0.012825 +++++++++++++++++++++to 0.012825
Heightened Def Con from 0.012825 to 0.012825
Heightened Def Con from 0.012845 +++++++++++++++++++++to 0.012845
Heightened Def Con from 0.012845 to 0.012845
Heightened Def Con from 0.012865 +++++++++++++++++++++to 0.012865
Heightened Def Con from 0.012865 to 0.012865
Heightened Def Con from 0.012885 +++++++++++++++++++++to 0.012885
Heightened Def Con from 0.012885 to 0.012885
Heightened Def Con from 0.012905 ++++++++++++++++++++to 0.012905
Heightened Def Con from 0.012905 to 0.012905
Heightened Def Con from 0.012925 ++++++++++++++++++++to 0.012925
Heightened Def Con from 0.012925 to 0.012925
Heightened Def Con from 0.012945 to 0.012945
Heightened Def Con from 0.012945 +++++++++++++++++++++to 0.012945
Heightened Def Con from 0.012945 to 0.012945
Heightened Def Con from 0.012965 to 0.012965
Heightened Def Con from 0.012965 +++++++++++++++++++++to 0.012965
Heightened Def Con from 0.012965 to 0.012965
Heightened Def Con from 0.012985 ++++++++++++++++++++to 0.012985
Heightened Def Con from 0.012985 to 0.012985
Heightened Def Con from 0.013005 +++++++++++++++++++++to 0.013005
Heightened Def Con from 0.013005 to 0.013005
Heightened Def Con from 0.013025 +++++++++++++++++++++to 0.013025
Heightened Def Con from 0.013025 to 0.013025
Heightened Def Con from 0.013045 +++++++++++++++++++to 0.013045
Heightened Def Con from 0.013045 to 0.013045
Heightened Def Con from 0.013065 to 0.013065
Heightened Def Con from 0.013065 ++++++++++++++++++++to 0.013065
Heightened Def Con from 0.013065 to 0.013065
Heightened Def Con from 0.013085 +++++++++++++++++++++to 0.013085
Heightened Def Con from 0.013105 +++++++++++++++++++to 0.013105
Heightened Def Con from 0.013105 to 0.013105
Heightened Def Con from 0.013125 +++++++++++++++++++++to 0.013125
Heightened Def Con from 0.013145 +++++++++++++++++++++to 0.013145
Heightened Def Con from 0.013145 to 0.013145
Heightened Def Con from 0.013165 to 0.013165
Heightened Def Con from 0.013165 +++++++++++++++++++++to 0.013165
Heightened Def Con from 0.013165 to 0.013165
Heightened Def Con from 0.013185 ++++++++++++++++++++to 0.013185
Heightened Def Con from 0.013185 to 0.013185
Heightened Def Con from 0.013205 to 0.013205
Heightened Def Con from 0.013205 +++++++++++++++++++++to 0.013205
Heightened Def Con from 0.013225 to 0.013225
Heightened Def Con from 0.013225 +++++++++++++++++++++to 0.013225
Heightened Def Con from 0.013225 to 0.013225
Heightened Def Con from 0.013245 +++++++++++++++++++++to 0.013245
Heightened Def Con from 0.013265 +++++++++++++++++++++to 0.013265
Heightened Def Con from 0.013265 to 0.013265
Heightened Def Con from 0.013285 ++++++++++++++++++++to 0.013285
Heightened Def Con from 0.013285 to 0.013285
Heightened Def Con from 0.013305 ++++++++++++++++++++to 0.013305
Heightened Def Con from 0.013305 to 0.013305
Heightened Def Con from 0.013325 to 0.013325
Heightened Def Con from 0.013325 +++++++++++++++++++++to 0.013325
Heightened Def Con from 0.013325 to 0.013325
Heightened Def Con from 0.013345 ++++++++++++++++++++to 0.013345
Heightened Def Con from 0.013345 to 0.013345
Heightened Def Con from 0.013365 +++++++++++++++++++++to 0.013365
Heightened Def Con from 0.013365 to 0.013365
Heightened Def Con from 0.013385 +++++++++++++++++++++to 0.013385
Heightened Def Con from 0.013385 to 0.013385
Heightened Def Con from 0.013405 ++++++++++++++++++++to 0.013405
Heightened Def Con from 0.013405 to 0.013405
Heightened Def Con from 0.013425 +++++++++++++++++++++to 0.013425
Heightened Def Con from 0.013425 to 0.013425
Heightened Def Con from 0.013445 +++++++++++++++++++to 0.013445
Heightened Def Con from 0.013445 to 0.013445
Heightened Def Con from 0.013465 +++++++++++++++++++++to 0.013465
Heightened Def Con from 0.013485 +++++++++++++++++++++to 0.013485
Heightened Def Con from 0.013505 to 0.013505
Heightened Def Con from 0.013505 ++++++++++++++++++++to 0.013505
Heightened Def Con from 0.013505 to 0.013505
Heightened Def Con from 0.013525 to 0.013525
Heightened Def Con from 0.013525 ++++++++++++++++++++to 0.013525
Heightened Def Con from 0.013525 to 0.013525
Heightened Def Con from 0.013545 ++++++++++++++++++++to 0.013545
Heightened Def Con from 0.013545 to 0.013545
Heightened Def Con from 0.013565 +++++++++++++++++++++to 0.013565
Heightened Def Con from 0.013585 +++++++++++++++++++++to 0.013585
Heightened Def Con from 0.013585 to 0.013585
Heightened Def Con from 0.013605 to 0.013605
Heightened Def Con from 0.013605 +++++++++++++++++++++to 0.013605
Heightened Def Con from 0.013605 to 0.013605
Heightened Def Con from 0.013625 +++++++++++++++++++++to 0.013625
Heightened Def Con from 0.013645 ++++++++++++++++++++to 0.013645
Heightened Def Con from 0.013645 to 0.013645
Heightened Def Con from 0.013665 ++++++++++++++++++++to 0.013665
Heightened Def Con from 0.013665 to 0.013665
Heightened Def Con from 0.013685 +++++++++++++++++++++to 0.013685
Heightened Def Con from 0.013685 to 0.013685
Heightened Def Con from 0.013705 to 0.013705
Heightened Def Con from 0.013705 ++++++++++++++++++++to 0.013705
Heightened Def Con from 0.013705 to 0.013705
Heightened Def Con from 0.013725 +++++++++++++++++++++to 0.013725
Heightened Def Con from 0.013725 to 0.013725
Heightened Def Con from 0.013745 +++++++++++++++++++++to 0.013745
Heightened Def Con from 0.013745 to 0.013745
Heightened Def Con from 0.013765 to 0.013765
Heightened Def Con from 0.013765 +++++++++++++++++++++to 0.013765
Heightened Def Con from 0.013765 to 0.013765
Heightened Def Con from 0.013785 +++++++++++++++++++to 0.013785
Heightened Def Con from 0.013785 to 0.013785
Heightened Def Con from 0.013805 ++++++++++++++++++++to 0.013805
Heightened Def Con from 0.013805 to 0.013805
Heightened Def Con from 0.013825 +++++++++++++++++++++to 0.013825
Heightened Def Con from 0.013825 to 0.013825
Heightened Def Con from 0.013845 +++++++++++++++++++++to 0.013845
Heightened Def Con from 0.013845 to 0.013845
[...]
Heightened Def Con from 0.096405 to 0.096405
Heightened Def Con from 0.096405 +++++++++++++++++++++to 0.096405
Heightened Def Con from 0.096425 +++++++++++++++++++++to 0.096425
Heightened Def Con from 0.096445 to 0.096445
Heightened Def Con from 0.096445 ++++++++++++++++++++to 0.096445
Heightened Def Con from 0.096445 to 0.096445
Heightened Def Con from 0.096465 +++++++++++++++++++++to 0.096465
Heightened Def Con from 0.096485 to 0.096485
Heightened Def Con from 0.096485 +++++++++++++++++++++to 0.096485
Heightened Def Con from 0.096485 to 0.096485
Heightened Def Con from 0.096505 +++++++++++++++++++++to 0.096505
Heightened Def Con from 0.096505 to 0.096505
Heightened Def Con from 0.096525 +++++++++++++++++++++to 0.096525
Heightened Def Con from 0.096525 to 0.096525
Heightened Def Con from 0.096545 to 0.096545
Heightened Def Con from 0.096545 +++++++++++++++++++++to 0.096545
Heightened Def Con from 0.096545 to 0.096545
Heightened Def Con from 0.096565 +++++++++++++++++++++to 0.096565
Heightened Def Con from 0.096585 +++++++++++++++++++++to 0.096585
Heightened Def Con from 0.096585 to 0.096585
Heightened Def Con from 0.096605 ++++++++++++++++++++to 0.096605
Heightened Def Con from 0.096605 to 0.096605
Heightened Def Con from 0.096625 +++++++++++++++++++++to 0.096625
Heightened Def Con from 0.096625 to 0.096625
Heightened Def Con from 0.096645 to 0.096645
Heightened Def Con from 0.096645 +++++++++++++++++++++to 0.096645
Heightened Def Con from 0.096645 to 0.096645
Heightened Def Con from 0.096665 to 0.096665
Heightened Def Con from 0.096665 +++++++++++++++++++++to 0.096665
Heightened Def Con from 0.096665 to 0.096665
Heightened Def Con from 0.096685 +++++++++++++++++++++to 0.096685
Heightened Def Con from 0.096685 to 0.096685
Heightened Def Con from 0.096705 to 0.096705
Heightened Def Con from 0.096705 ++++++++++++++++++++to 0.096705
Heightened Def Con from 0.096705 to 0.096705
Heightened Def Con from 0.096725 to 0.096725
Heightened Def Con from 0.096725 +++++++++++++++++++++to 0.096725
Heightened Def Con from 0.096745 +++++++++++++++++++++to 0.096745
Heightened Def Con from 0.096745 to 0.096745
Heightened Def Con from 0.096765 +++++++++++++++++++++to 0.096765
Heightened Def Con from 0.096765 to 0.096765
Heightened Def Con from 0.096785 +++++++++++++++++++++to 0.096785
Heightened Def Con from 0.096785 to 0.096785
Heightened Def Con from 0.096805 +++++++++++++++++++++to 0.096805
Heightened Def Con from 0.096825 +++++++++++++++++++++to 0.096825
Heightened Def Con from 0.096845 to 0.096845
Heightened Def Con from 0.096845 +++++++++++++++++++++to 0.096845
Heightened Def Con from 0.096845 to 0.096845
Heightened Def Con from 0.096865 +++++++++++++++++++++to 0.096865
Heightened Def Con from 0.096865 to 0.096865
Heightened Def Con from 0.096885 +++++++++++++++++++++to 0.096885
Heightened Def Con from 0.096905 +++++++++++++++++++++to 0.096905
Heightened Def Con from 0.096905 to 0.096905
Heightened Def Con from 0.096925 +++++++++++++++++++++to 0.096925
Heightened Def Con from 0.096925 to 0.096925
Heightened Def Con from 0.096945 to 0.096945
Heightened Def Con from 0.096945 +++++++++++++++++++++to 0.096945
Heightened Def Con from 0.096965 +++++++++++++++++++++to 0.096965
Heightened Def Con from 0.096985 to 0.096985
Heightened Def Con from 0.096985 ++++++++++++++++++++to 0.096985
Heightened Def Con from 0.096985 to 0.096985
Heightened Def Con from 0.097005 to 0.097005
Heightened Def Con from 0.097005 +++++++++++++++++++++to 0.097005
Heightened Def Con from 0.097025 +++++++++++++++++++++to 0.097025
Heightened Def Con from 0.097025 to 0.097025
Heightened Def Con from 0.097045 +++++++++++++++++++++to 0.097045
Heightened Def Con from 0.097065 to 0.097065
Heightened Def Con from 0.097065 +++++++++++++++++++++to 0.097065
Heightened Def Con from 0.097065 to 0.097065
Heightened Def Con from 0.097085 +++++++++++++++++++++to 0.097085
Heightened Def Con from 0.097085 to 0.097085
Heightened Def Con from 0.097105 to 0.097105
Heightened Def Con from 0.097105 +++++++++++++++++++++to 0.097105
Heightened Def Con from 0.097105 to 0.097105
Heightened Def Con from 0.097125 +++++++++++++++++++++to 0.097125
Heightened Def Con from 0.097125 to 0.097125
Heightened Def Con from 0.097145 +++++++++++++++++++++to 0.097145
Heightened Def Con from 0.097145 to 0.097145
Heightened Def Con from 0.097165 +++++++++++++++++++++to 0.097165
Heightened Def Con from 0.097165 to 0.097165
Heightened Def Con from 0.097185 +++++++++++++++++++++to 0.097185
Heightened Def Con from 0.097185 to 0.097185
Heightened Def Con from 0.097205 to 0.097205
Heightened Def Con from 0.097205 ++++++++++++++++++++to 0.097205
Heightened Def Con from 0.097205 to 0.097205
Heightened Def Con from 0.097225 +++++++++++++++++++++to 0.097225
Heightened Def Con from 0.097225 to 0.097225
Heightened Def Con from 0.097245 +++++++++++++++++++++to 0.097245
Heightened Def Con from 0.097245 to 0.097245
Heightened Def Con from 0.097265 +++++++++++++++++++++to 0.097265
Heightened Def Con from 0.097285 +++++++++++++++++++++to 0.097285
Heightened Def Con from 0.097285 to 0.097285
Heightened Def Con from 0.097305 +++++++++++++++++++++to 0.097305
Heightened Def Con from 0.097305 to 0.097305
Heightened Def Con from 0.097325 +++++++++++++++++++++to 0.097325
Heightened Def Con from 0.097325 to 0.097325
Heightened Def Con from 0.097345 to 0.097345
Heightened Def Con from 0.097345 +++++++++++++++++++++to 0.097345
Heightened Def Con from 0.097365 ++++++++++++++++++++to 0.097365
Heightened Def Con from 0.097365 to 0.097365
Heightened Def Con from 0.097385 +++++++++++++++++++++to 0.097385
Heightened Def Con from 0.097405 to 0.097405
Heightened Def Con from 0.097405 +++++++++++++++++++++to 0.097405
Heightened Def Con from 0.097405 to 0.097405
Heightened Def Con from 0.097425 +++++++++++++++++++++to 0.097425
Heightened Def Con from 0.097425 to 0.097425
Heightened Def Con from 0.097445 to 0.097445
Heightened Def Con from 0.097445 +++++++++++++++++++++to 0.097445
Heightened Def Con from 0.097465 +++++++++++++++++++++to 0.097465
Heightened Def Con from 0.097485 +++++++++++++++++++++to 0.097485
Heightened Def Con from 0.097505 +++++++++++++++++++++to 0.097505
Heightened Def Con from 0.097505 to 0.097505
Heightened Def Con from 0.097525 +++++++++++++++++++++to 0.097525
Heightened Def Con from 0.097525 to 0.097525
Heightened Def Con from 0.097545 +++++++++++++++++++++to 0.097545
Heightened Def Con from 0.097545 to 0.097545
Heightened Def Con from 0.097565 +++++++++++++++++++++to 0.097565
Heightened Def Con from 0.097585 +++++++++++++++++++++to 0.097585
Heightened Def Con from 0.097585 to 0.097585
Heightened Def Con from 0.097605 +++++++++++++++++++++to 0.097605
Heightened Def Con from 0.097605 to 0.097605
Heightened Def Con from 0.097625 +++++++++++++++++++++to 0.097625
Heightened Def Con from 0.097645 +++++++++++++++++++++to 0.097645
Heightened Def Con from 0.097645 to 0.097645
Heightened Def Con from 0.097665 +++++++++++++++++++++to 0.097665
Heightened Def Con from 0.097665 to 0.097665
Heightened Def Con from 0.097685 +++++++++++++++++++++to 0.097685
Heightened Def Con from 0.097705 to 0.097705
Heightened Def Con from 0.097705 +++++++++++++++++++++to 0.097705
Heightened Def Con from 0.097705 to 0.097705
Heightened Def Con from 0.097725 +++++++++++++++++++++to 0.097725
Heightened Def Con from 0.097725 to 0.097725
Heightened Def Con from 0.097745 +++++++++++++++++++++to 0.097745
Heightened Def Con from 0.097765 +++++++++++++++++++++to 0.097765
Heightened Def Con from 0.097785 to 0.097785
Heightened Def Con from 0.097785 +++++++++++++++++++++to 0.097785
Heightened Def Con from 0.097785 to 0.097785
Heightened Def Con from 0.097805 +++++++++++++++++++++to 0.097805
Heightened Def Con from 0.097805 to 0.097805
Heightened Def Con from 0.097825 ++++++++++++++++++++to 0.097825
Heightened Def Con from 0.097825 to 0.097825
Heightened Def Con from 0.097845 +++++++++++++++++++++to 0.097845
Heightened Def Con from 0.097865 to 0.097865
Heightened Def Con from 0.097865 +++++++++++++++++++++to 0.097865
Heightened Def Con from 0.097865 to 0.097865
Heightened Def Con from 0.097885 +++++++++++++++++++++to 0.097885
Heightened Def Con from 0.097885 to 0.097885
Heightened Def Con from 0.097905 to 0.097905
Heightened Def Con from 0.097905 +++++++++++++++++++++to 0.097905
Heightened Def Con from 0.097905 to 0.097905
Heightened Def Con from 0.097925 to 0.097925
Heightened Def Con from 0.097925 +++++++++++++++++++++to 0.097925
Heightened Def Con from 0.097945 +++++++++++++++++++++to 0.097945
Heightened Def Con from 0.097945 to 0.097945
Heightened Def Con from 0.097965 to 0.097965
Heightened Def Con from 0.097965 +++++++++++++++++++++to 0.097965
Heightened Def Con from 0.097965 to 0.097965
Heightened Def Con from 0.097985 +++++++++++++++++++++to 0.097985
Heightened Def Con from 0.097985 to 0.097985
Heightened Def Con from 0.098005 ++++++++++++++++++++to 0.098005
Heightened Def Con from 0.098005 to 0.098005
Heightened Def Con from 0.098025 ++++++++++++++++++++to 0.098025
Heightened Def Con from 0.098025 to 0.098025
Heightened Def Con from 0.098045 +++++++++++++++++++++to 0.098045
Heightened Def Con from 0.098045 to 0.098045
Heightened Def Con from 0.098065 +++++++++++++++++++++to 0.098065
Heightened Def Con from 0.098085 +++++++++++++++++++++to 0.098085
Heightened Def Con from 0.098085 to 0.098085
Heightened Def Con from 0.098105 +++++++++++++++++++++to 0.098105
Heightened Def Con from 0.098105 to 0.098105
Heightened Def Con from 0.098125 +++++++++++++++++++++to 0.098125
Heightened Def Con from 0.098145 +++++++++++++++++++++to 0.098145
Heightened Def Con from 0.098145 to 0.098145
Heightened Def Con from 0.098165 to 0.098165
Heightened Def Con from 0.098165 +++++++++++++++++++++to 0.098165
Heightened Def Con from 0.098185 +++++++++++++++++++++to 0.098185
Heightened Def Con from 0.098185 to 0.098185
Heightened Def Con from 0.098205 +++++++++++++++++++++to 0.098205
Heightened Def Con from 0.098225 +++++++++++++++++++++to 0.098225
Heightened Def Con from 0.098245 +++++++++++++++++++++to 0.098245
Heightened Def Con from 0.098245 to 0.098245
Heightened Def Con from 0.098265 ++++++++++++++++++++to 0.098265
Heightened Def Con from 0.098265 to 0.098265
Heightened Def Con from 0.098285 +++++++++++++++++++++to 0.098285
Heightened Def Con from 0.098285 to 0.098285
Heightened Def Con from 0.098305 +++++++++++++++++++++to 0.098305
Heightened Def Con from 0.098305 to 0.098305
Heightened Def Con from 0.098325 to 0.098325
Heightened Def Con from 0.098325 ++++++++++++++++++++to 0.098325
Heightened Def Con from 0.098325 to 0.098325
Heightened Def Con from 0.098345 +++++++++++++++++++++to 0.098345
Heightened Def Con from 0.098345 to 0.098345
Heightened Def Con from 0.098365 +++++++++++++++++++to 0.098365
Heightened Def Con from 0.098365 to 0.098365
Heightened Def Con from 0.098385 to 0.098385
Heightened Def Con from 0.098385 +++++++++++++++++++++to 0.098385
Heightened Def Con from 0.098385 to 0.098385
Heightened Def Con from 0.098405 ++++++++++++++++++++to 0.098405
Heightened Def Con from 0.098405 to 0.098405
Heightened Def Con from 0.098425 +++++++++++++++++++++to 0.098425
Heightened Def Con from 0.098425 to 0.098425
Heightened Def Con from 0.098445 +++++++++++++++++++++to 0.098445
Heightened Def Con from 0.098445 to 0.098445
Heightened Def Con from 0.098465 +++++++++++++++++++++to 0.098465
Heightened Def Con from 0.098485 +++++++++++++++++++++to 0.098485
Heightened Def Con from 0.098505 +++++++++++++++++++++to 0.098505
Heightened Def Con from 0.098505 to 0.098505
Heightened Def Con from 0.098525 +++++++++++++++++++++to 0.098525
Heightened Def Con from 0.098545 +++++++++++++++++++++to 0.098545
Heightened Def Con from 0.098545 to 0.098545
Heightened Def Con from 0.098565 +++++++++++++++++++++to 0.098565
Heightened Def Con from 0.098585 +++++++++++++++++++++to 0.098585
Heightened Def Con from 0.098585 to 0.098585
Heightened Def Con from 0.098605 +++++++++++++++++++++to 0.098605
Heightened Def Con from 0.098625 +++++++++++++++++++++to 0.098625
Heightened Def Con from 0.098625 to 0.098625
Heightened Def Con from 0.098645 to 0.098645
Heightened Def Con from 0.098645 +++++++++++++++++++++to 0.098645
Heightened Def Con from 0.098665 +++++++++++++++++++++to 0.098665
Heightened Def Con from 0.098665 to 0.098665
Heightened Def Con from 0.098685 to 0.098685
Heightened Def Con from 0.098685 +++++++++++++++++++++to 0.098685
Heightened Def Con from 0.098685 to 0.098685
Heightened Def Con from 0.098705 +++++++++++++++++++++to 0.098705
Heightened Def Con from 0.098705 to 0.098705
Heightened Def Con from 0.098725 +++++++++++++++++++++to 0.098725
Heightened Def Con from 0.098725 to 0.098725
Heightened Def Con from 0.098745 +++++++++++++++++++++to 0.098745
Heightened Def Con from 0.098765 ++++++++++++++++++++to 0.098765
Heightened Def Con from 0.098765 to 0.098765
Heightened Def Con from 0.098785 to 0.098785
Heightened Def Con from 0.098785 ++++++++++++++++++++to 0.098785
Heightened Def Con from 0.098785 to 0.098785
Heightened Def Con from 0.098805 to 0.098805
Heightened Def Con from 0.098805 +++++++++++++++++++++to 0.098805
Heightened Def Con from 0.098805 to 0.098805
Heightened Def Con from 0.098825 +++++++++++++++++++++to 0.098825
Heightened Def Con from 0.098845 +++++++++++++++++++++to 0.098845
Heightened Def Con from 0.098845 to 0.098845
Heightened Def Con from 0.098865 +++++++++++++++++++++to 0.098865
Heightened Def Con from 0.098865 to 0.098865
Heightened Def Con from 0.098885 +++++++++++++++++++++to 0.098885
Heightened Def Con from 0.098885 to 0.098885
Heightened Def Con from 0.098905 +++++++++++++++++++++to 0.098905
Heightened Def Con from 0.098905 to 0.098905
Heightened Def Con from 0.098925 +++++++++++++++++++++to 0.098925
Heightened Def Con from 0.098945 ++++++++++++++++++++to 0.098945
Heightened Def Con from 0.098945 to 0.098945
Heightened Def Con from 0.098965 +++++++++++++++++++++to 0.098965
Heightened Def Con from 0.098985 +++++++++++++++++++++to 0.098985
Heightened Def Con from 0.099005 +++++++++++++++++++++to 0.099005
Heightened Def Con from 0.099005 to 0.099005
Heightened Def Con from 0.099025 to 0.099025
Heightened Def Con from 0.099025 +++++++++++++++++++++to 0.099025
Heightened Def Con from 0.099025 to 0.099025
Heightened Def Con from 0.099045 +++++++++++++++++++++to 0.099045
Heightened Def Con from 0.099065 +++++++++++++++++++++to 0.099065
Heightened Def Con from 0.099085 ++++++++++++++++++++to 0.099085
Heightened Def Con from 0.099085 to 0.099085
Heightened Def Con from 0.099105 +++++++++++++++++++++to 0.099105
Heightened Def Con from 0.099105 to 0.099105
Heightened Def Con from 0.099125 +++++++++++++++++++++to 0.099125
Heightened Def Con from 0.099125 to 0.099125
Heightened Def Con from 0.099145 +++++++++++++++++++++to 0.099145
Heightened Def Con from 0.099145 to 0.099145
Heightened Def Con from 0.099165 to 0.099165
Heightened Def Con from 0.099165 +++++++++++++++++++++to 0.099165
Heightened Def Con from 0.099165 to 0.099165
Heightened Def Con from 0.099185 +++++++++++++++++++++to 0.099185
Heightened Def Con from 0.099185 to 0.099185
Heightened Def Con from 0.099205 to 0.099205
Heightened Def Con from 0.099205 +++++++++++++++++++++to 0.099205
Heightened Def Con from 0.099205 to 0.099205
Heightened Def Con from 0.099225 +++++++++++++++++++++to 0.099225
Heightened Def Con from 0.099225 to 0.099225
Heightened Def Con from 0.099245 +++++++++++++++++++++to 0.099245
Heightened Def Con from 0.099265 +++++++++++++++++++++to 0.099265
Heightened Def Con from 0.099265 to 0.099265
Heightened Def Con from 0.099285 ++++++++++++++++++++to 0.099285
Heightened Def Con from 0.099285 to 0.099285
Heightened Def Con from 0.099305 +++++++++++++++++++++to 0.099305
Heightened Def Con from 0.099305 to 0.099305
Heightened Def Con from 0.099325 ++++++++++++++++++++to 0.099325
Heightened Def Con from 0.099325 to 0.099325
Heightened Def Con from 0.099345 to 0.099345
Heightened Def Con from 0.099345 +++++++++++++++++++++to 0.099345
Heightened Def Con from 0.099365 +++++++++++++++++++++to 0.099365
Heightened Def Con from 0.099365 to 0.099365
Heightened Def Con from 0.099385 to 0.099385
Heightened Def Con from 0.099385 ++++++++++++++++++to 0.099385
Heightened Def Con from 0.099385 to 0.099385
Heightened Def Con from 0.099405 +++++++++++++++++++++to 0.099405
Heightened Def Con from 0.099425 +++++++++++++++++++++to 0.099425
Heightened Def Con from 0.099445 to 0.099445
Heightened Def Con from 0.099445 +++++++++++++++++++to 0.099445
Heightened Def Con from 0.099445 to 0.099445
Heightened Def Con from 0.099465 +++++++++++++++++++++to 0.099465
Heightened Def Con from 0.099465 to 0.099465
Heightened Def Con from 0.099485 +++++++++++++++++++++to 0.099485
Heightened Def Con from 0.099485 to 0.099485
Heightened Def Con from 0.099505 +++++++++++++++++++++to 0.099505
Heightened Def Con from 0.099505 to 0.099505
Heightened Def Con from 0.099525 +++++++++++++++++++++to 0.099525
Heightened Def Con from 0.099525 to 0.099525
Heightened Def Con from 0.099545 +++++++++++++++++++++to 0.099545
Heightened Def Con from 0.099545 to 0.099545
Heightened Def Con from 0.099565 to 0.099565
Heightened Def Con from 0.099565 +++++++++++++++++++++to 0.099565
Heightened Def Con from 0.099565 to 0.099565
Heightened Def Con from 0.099585 +++++++++++++++++++++to 0.099585
Heightened Def Con from 0.099585 to 0.099585
Heightened Def Con from 0.099605 to 0.099605
Heightened Def Con from 0.099605 +++++++++++++++++++++to 0.099605
Heightened Def Con from 0.099605 to 0.099605
Heightened Def Con from 0.099625 to 0.099625
Heightened Def Con from 0.099625 +++++++++++++++++++++to 0.099625
Heightened Def Con from 0.099645 +++++++++++++++++++++to 0.099645
Heightened Def Con from 0.099645 to 0.099645
Heightened Def Con from 0.099665 +++++++++++++++++++++to 0.099665
Heightened Def Con from 0.099665 to 0.099665
Heightened Def Con from 0.099685 +++++++++++++++++++++to 0.099685
Heightened Def Con from 0.099685 to 0.099685
Heightened Def Con from 0.099705 +++++++++++++++++++++to 0.099705
Heightened Def Con from 0.099705 to 0.099705
Heightened Def Con from 0.099725 ++++++++++++++++++++to 0.099725
Heightened Def Con from 0.099725 to 0.099725
Heightened Def Con from 0.099745 to 0.099745
Heightened Def Con from 0.099745 +++++++++++++++++++++to 0.099745
Heightened Def Con from 0.099745 to 0.099745
Heightened Def Con from 0.099765 to 0.099765
Heightened Def Con from 0.099765 +++++++++++++++++++++to 0.099765
Heightened Def Con from 0.099765 to 0.099765
Heightened Def Con from 0.099785 +++++++++++++++++++++to 0.099785
Heightened Def Con from 0.099805 +++++++++++++++++++++to 0.099805
Heightened Def Con from 0.099825 +++++++++++++++++++++to 0.099825
Heightened Def Con from 0.099845 to 0.099845
Heightened Def Con from 0.099845 +++++++++++++++++++++to 0.099845
Heightened Def Con from 0.099845 to 0.099845
Heightened Def Con from 0.099865 +++++++++++++++++++++to 0.099865
Heightened Def Con from 0.099865 to 0.099865
Heightened Def Con from 0.099885 +++++++++++++++++++++to 0.099885
Heightened Def Con from 0.099905 to 0.099905
Heightened Def Con from 0.099905 ++++++++++++++++++++to 0.099905
Heightened Def Con from 0.099905 to 0.099905
Heightened Def Con from 0.099925 +++++++++++++++++++++to 0.099925
Heightened Def Con from 0.099925 to 0.099925
Heightened Def Con from 0.099945 +++++++++++++++++++to 0.099945
Heightened Def Con from 0.099945 to 0.099945
Heightened Def Con from 0.099965 +++++++++++++++++++++to 0.099965
Heightened Def Con from 0.099965 to 0.099965
Heightened Def Con from 0.099985 +++++++++++++++++++++to 0.099985
Heightened Def Con from 0.099985 to 0.099985

Date: Thu Jul 20 15:10:32 2023
Total elapsed time: 21.734 seconds.

tnom = 27
temp = 27
method = modified trap
totiter = 15157653
traniter = 15157646
tranpoints = 2108535
accept = 936969
rejected = 1284868
matrix size = 14
fillins = 6
solver = Normal
Avg thread counts: 1.0/1.0/1.0/1.0
Matrix Compiler1: 860 bytes object code size  0.4/0.4/[0.3]
Matrix Compiler2: 1.04 KB object code size  0.2/0.4/[0.2]

