Circuit: * D:\00 - ITBA\Electrónica 4\TPF\TP-FINAL\Simulation\opto\sch.asc

WARNING: Less than two connections to node fb.  This node is used by r3.

Date: Thu Jul 20 11:26:00 2023
Total elapsed time: 0.977 seconds.

tnom = 27
temp = 27
method = trap
totiter = 200013
traniter = 0
tranpoints = 0
accept = 0
rejected = 0
matrix size = 10
fillins = 0
solver = Normal
Avg thread counts: 1.0/0.0/1.0/1.0
Matrix Compiler1: 444 bytes object code size  0.3/0.3/[0.2]
Matrix Compiler2: 700 bytes object code size  0.2/0.2/[0.2]

