Circuit: * D:\00 - ITBA\Electrónica 4\Trabajos Prácticos\TP2-Flyback\TP2-FlyBack\Simulation\PWM\Draft1.asc

WARNING: Node NC_04 is floating.
WARNING: Node NC_05 is floating.

WARNING: Less than two connections to node vosc.  This node is used by r:u1:18.
WARNING: Less than two connections to node nc_03.  This node is used by r1.
WARNING: Less than two connections to node nc_04.  This node is used by r1.
WARNING: Less than two connections to node v75k.  This node is used by vtest1.
WARNING: Less than two connections to node vo1.  This node is used by r2.
WARNING: Less than two connections to node nc_05.  This node is used by c1.
Direct Newton iteration failed to find .op point.  (Use ".option noopiter" to skip.)
Starting Gmin stepping
Gmin = 10
Gmin = 1.07374
Gmin = 0.115292
Gmin = 0.0123794
Gmin = 0.00132923
Gmin = 0.000142725
Gmin = 1.5325e-05
vernier = 0.5
vernier = 0.25
vernier = 0.333333
Gmin = 1.0447e-05
vernier = 0.444444
Gmin = 4.13423e-06
vernier = 0.592592
vernier = 0.790123
Gmin = 9.45779e-07
vernier = 1
Gmin = 1.15494e-07
Gmin = 1.24011e-08
Gmin = 1.33156e-09
Gmin = 1.42975e-10
Gmin = 1.53518e-11
Gmin = 1.64839e-12
Gmin = 1.76994e-13
Gmin = 0
Gmin stepping succeeded in finding the operating point.

Ignoring empty pin current: Ix(u1:gnd)
Ignoring empty pin current: Ix(u1:gnd)

Date: Wed May 10 20:55:39 2023
Total elapsed time: 0.497 seconds.

tnom = 27
temp = 27
method = modified trap
totiter = 22043
traniter = 21381
tranpoints = 7071
accept = 5159
rejected = 1912
matrix size = 61
fillins = 0
solver = Normal
Avg thread counts: 1.0/1.1/1.1/1.0
Matrix Compiler1: 2.03 KB object code size  1.3/0.9/[0.4]
Matrix Compiler2: 3.56 KB object code size  0.4/0.8/[0.5]

