Circuit: * D:\00 - ITBA\Electrónica 4\Trabajos Prácticos\TP2-Flyback\TP2-FlyBack\Simulation\Full\sch.asc

WARNING: Less than two connections to node vosc.  This node is used by r:u1:18.
Direct Newton iteration for .op point succeeded.
Ignoring empty pin current: Ix(u1:gnd)
Ignoring empty pin current: Ix(u1:gnd)

Date: Thu May 11 21:05:14 2023
Total elapsed time: 8.124 seconds.

tnom = 27
temp = 27
method = modified trap
totiter = 710641
traniter = 710616
tranpoints = 211092
accept = 142693
rejected = 68399
matrix size = 72
fillins = 16
solver = Normal
Avg thread counts: 1.0/1.0/1.0/1.0
Matrix Compiler1: 3.55 KB object code size  1.9/1.5/[0.6]
Matrix Compiler2: 4.94 KB object code size  1.0/1.9/[0.5]

