Circuit: * D:\00 - ITBA\Electrónica 4\TPF\TP-FINAL\Simulation\OTROS\DRIVER\sch.asc

Warning: Multiple definitions of model "2scr375p" Type: BJT
Warning: Multiple definitions of model "bc857b" Type: BJT
Warning: Multiple definitions of model "bc847c" Type: BJT
Warning: Multiple definitions of model "bc847b" Type: BJT
WARNING: Less than two connections to node u1:dp.  This node is used by a:u1:ddel.
Direct Newton iteration for .op point succeeded.
Ignoring empty pin current: Ix(u1:vdd)
Ignoring empty pin current: Ix(u2:vdd)
Ignoring empty pin current: Ix(u3:vdd)
Ignoring empty pin current: Ix(u1:vdd)
Ignoring empty pin current: Ix(u2:vdd)
Ignoring empty pin current: Ix(u3:vdd)

Date: Thu Jul 20 13:59:26 2023
Total elapsed time: 0.233 seconds.

tnom = 27
temp = 27
method = modified trap
totiter = 7788
traniter = 7749
tranpoints = 3345
accept = 2799
rejected = 546
matrix size = 86
fillins = 31
solver = Normal
Avg thread counts: 1.4/1.8/1.8/1.4
Matrix Compiler1: 4.73 KB object code size  1.7/1.2/[0.4]
Matrix Compiler2: 6.12 KB object code size  0.9/1.6/[0.6]

