Circuit: * D:\00 - ITBA\Electrónica 4\TPF\TP-FINAL\Simulation\OTROS\DRIVER\sch.asc

Warning: Multiple definitions of model "2scr375p" Type: BJT
Warning: Multiple definitions of model "bc857b" Type: BJT
Warning: Multiple definitions of model "bc847c" Type: BJT
Warning: Multiple definitions of model "bc847b" Type: BJT
WARNING: Less than two connections to node u1:dp.  This node is used by a:u1:ddel.
Direct Newton iteration for .op point succeeded.
Ignoring empty pin current: Ix(u1:vdd)
Ignoring empty pin current: Ix(u2:vdd)
Ignoring empty pin current: Ix(u3:vdd)
Ignoring empty pin current: Ix(u1:vdd)
Ignoring empty pin current: Ix(u2:vdd)
Ignoring empty pin current: Ix(u3:vdd)

Date: Fri Jul 21 18:36:28 2023
Total elapsed time: 0.269 seconds.

tnom = 27
temp = 27
method = modified trap
totiter = 9483
traniter = 9447
tranpoints = 3710
accept = 3067
rejected = 643
matrix size = 88
fillins = 31
solver = Normal
Avg thread counts: 1.3/1.7/1.7/1.3
Matrix Compiler1: 4.83 KB object code size  2.4/1.5/[0.5]
Matrix Compiler2: 6.27 KB object code size  1.2/2.2/[0.7]

