Circuit: * D:\00 - ITBA\Electrónica 4\TPF\TP-FINAL\Simulation\MOS y Dispersión\Draft1.asc

Warning: Multiple definitions of model "2scr375p" Type: BJT
Warning: Multiple definitions of model "bc857b" Type: BJT
Warning: Multiple definitions of model "bc847c" Type: BJT
Warning: Multiple definitions of model "bc847b" Type: BJT
