Circuit: * D:\00 - ITBA\Electrónica 4\TPF\TP-FINAL\Simulation\MOS y Dispersión\sch.asc

WARNING: Less than two connections to node fb.  This node is used by r12.
U1:v3: Missing value, assumed 0V @ DC
Direct Newton iteration failed to find .op point.  (Use ".option noopiter" to skip.)
Starting Gmin stepping
Gmin = 10
Gmin = 1.07374
Gmin = 0.115292
Gmin = 0.0123794
Gmin = 0.00132923
Gmin = 0.000142725
Gmin = 1.5325e-05
vernier = 0.5
vernier = 0.25
vernier = 0.125
Gmin = 8.9513e-06
vernier = 0.0625
vernier = 0.03125
vernier = 0.015625
vernier = 0.0078125
Gmin = 9.00098e-06
vernier = 0.00390625
vernier = 0.00195312
vernier = 0.000976562
vernier = 0.000488281
Gmin = 0
Gmin stepping failed

Starting source stepping with srcstepmethod=0
Source Step = 3.0303%
Source Step = 33.3333%
Source Step = 54.7348%
Source Step = 55.013%
Source Step = 55.0426%
Source Step = 55.0722%
Source Step = 55.1018%
Source Step = 55.1314%
Source Step = 55.161%
vernier = 0.00146484
Source Step = 55.2054%
Source Step = 55.2498%
Source Step = 55.2942%
Source Step = 55.3385%
Source Step = 55.3829%
vernier = 0.00219727
Source Step = 55.4473%
Source Step = 55.5139%
Source Step = 55.5805%
Source Step = 55.647%
Source Step = 55.7136%
vernier = 0.0032959
Source Step = 55.8068%
Source Step = 55.9067%
Source Step = 56.0066%
Source Step = 56.1065%
Source Step = 56.2064%
vernier = 0.00494385
Source Step = 56.3412%
Source Step = 56.491%
Source Step = 56.6408%
Source Step = 56.7906%
Source Step = 56.9404%
vernier = 0.00741577
Source Step = 57.1352%
Source Step = 57.3599%
Source Step = 57.5846%
Source Step = 57.8094%
Source Step = 58.0341%
vernier = 0.0111237
Source Step = 58.315%
Source Step = 58.6521%
Source Step = 58.9891%
Source Step = 59.3262%
Source Step = 59.6633%
vernier = 0.0166855
Source Step = 60.0678%
vernier = 0.00417137
Source Step = 60.0457%
Source Step = 60.0773%
Source Step = 60.1089%
Source Step = 60.1405%
Source Step = 60.1721%
vernier = 0.00156426
Source Step = 60.2132%
Source Step = 60.2606%
Source Step = 60.308%
Source Step = 60.3554%
Source Step = 60.4028%
vernier = 0.0023464
Source Step = 60.462%
Source Step = 60.5331%
Source Step = 60.6042%
Source Step = 60.6753%
Source Step = 60.7464%
vernier = 0.00351959
Source Step = 60.8318%
Source Step = 60.9384%
Source Step = 61.0451%
Source Step = 61.1517%
Source Step = 61.2584%
vernier = 0.00527939
Source Step = 61.381%
Source Step = 61.541%
Source Step = 61.701%
Source Step = 61.861%
Source Step = 62.021%
vernier = 0.00791909
Source Step = 62.1969%
Source Step = 62.4369%
Source Step = 62.6769%
Source Step = 62.9168%
Source Step = 63.1568%
vernier = 0.0118786
Source Step = 63.4088%
Source Step = 63.7688%
Source Step = 64.1287%
Source Step = 64.4887%
Source Step = 64.8486%
Source Step = 65.2086%
vernier = 0.0178179
Source Step = 65.7485%
Source Step = 66.2885%
Source Step = 66.8284%
Source Step = 67.3683%
Source Step = 67.9083%
vernier = 0.0267269
Source Step = 68.6912%
Source Step = 69.5011%
Source Step = 70.311%
Source Step = 71.1209%
Source Step = 71.9308%
vernier = 0.0400904
Source Step = 73.0647%
Source Step = 74.2795%
Source Step = 75.4944%
Source Step = 76.7093%
Source Step = 77.9241%
vernier = 0.0601356
Source Step = 79.5642%
Source Step = 81.3865%
Source Step = 83.2088%
Source Step = 85.0311%
Source Step = 86.8533%
vernier = 0.0902034
Source Step = 89.2223%
Source Step = 90.0594%
Source Step = 90.1021%
Source Step = 90.1449%
Source Step = 90.1876%
Source Step = 90.2303%
Source Step = 90.273%
Source Step = 90.3157%
Source Step = 90.3584%
Source Step = 90.4011%
Source Step = 90.4438%
Source Step = 90.4865%
Source Step = 90.5292%
Source Step = 90.572%
Source Step = 90.6147%
Source Step = 90.6574%
Source Step = 90.7001%
Source Step = 90.7428%
Source Step = 90.7855%
Source Step = 90.8282%
Source Step = 90.8709%
Source Step = 90.9136%
Source Step = 90.9563%
Source Step = 90.9991%
Source Step = 91.0418%
Source Step = 91.0845%
Source Step = 91.1272%
Source Step = 91.1699%
Source Step = 91.2126%
Source Step = 91.2553%
Source Step = 91.298%
Source Step = 91.3407%
Source Step = 91.3834%
Source Step = 91.4262%
Source Step = 91.4689%
Source Step = 91.5116%
Source Step = 91.5543%
Source Step = 91.597%
Source Step = 91.6397%
Source Step = 91.6824%
Source Step = 91.7251%
Source Step = 91.7678%
Source Step = 91.8105%
Source Step = 91.8533%
Source Step = 91.896%
Source Step = 91.9387%
Source Step = 91.9814%
Source Step = 92.0241%
Source Step = 92.0668%
Source Step = 92.1095%
Source Step = 92.1522%
Source Step = 92.1949%
Source Step = 92.2376%
Source Step = 92.2804%
Source Step = 92.3231%
Source Step = 92.3658%
Source Step = 92.4085%
Source Step = 92.4512%
Source Step = 92.4939%
Source Step = 92.5366%
Source Step = 92.5793%
Source Step = 92.622%
Source Step = 92.6647%
Source Step = 92.7075%
Source Step = 92.7502%
Source Step = 92.7929%
Source Step = 92.8356%
Source Step = 92.8783%
Source Step = 92.921%
Source Step = 92.9637%
Source Step = 93.0064%
Source Step = 93.0491%
Source Step = 93.0918%
Source Step = 93.1345%
Source Step = 93.1773%
Source Step = 93.22%
Source Step = 93.2627%
Source Step = 93.3054%
Source Step = 93.3481%
Source Step = 93.3908%
Source Step = 93.4335%
Source Step = 93.4762%
Source Step = 93.5189%
Source Step = 93.5616%
Source Step = 93.6044%
Source Step = 93.6471%
Source Step = 93.6898%
Source Step = 93.7325%
Source Step = 93.7752%
Source Step = 93.8179%
Source Step = 93.8606%
Source Step = 93.9033%
Source Step = 93.946%
Source Step = 93.9887%
Source Step = 94.0315%
Source Step = 94.0742%
Source Step = 94.1169%
Source Step = 94.1596%
Source Step = 94.2023%
Source Step = 94.245%
Source Step = 94.2877%
Source Step = 94.3304%
Source Step = 94.3731%
Source Step = 94.4158%
Source Step = 94.4586%
Source Step = 94.5013%
Source Step = 94.544%
Source Step = 94.5867%
Source Step = 94.6294%
Source Step = 94.6721%
Source Step = 94.7148%
Source Step = 94.7575%
Source Step = 94.8002%
Source Step = 94.8429%
Source Step = 94.8857%
Source Step = 94.9284%
Source Step = 94.9711%
Source Step = 95.0138%
Source Step = 95.0565%
Source Step = 95.0992%
Source Step = 95.1419%
Source Step = 95.1846%
Source Step = 95.2273%
Source Step = 95.27%
Source Step = 95.3128%
Source Step = 95.3555%
Source Step = 95.3982%
Source Step = 95.4409%
Source Step = 95.4836%
Source Step = 95.5263%
Source Step = 95.569%
Source Step = 95.6117%
Source Step = 95.6544%
Source Step = 95.6971%
Source Step = 95.7399%
Source Step = 95.7826%
Source Step = 95.8253%
Source Step = 95.868%
Source Step = 95.9107%
Source Step = 95.9534%
Source Step = 95.9961%
Source Step = 96.0388%
Source Step = 96.0815%
Source Step = 96.1242%
Source Step = 96.167%
Source Step = 96.2097%
Source Step = 96.2524%
Source Step = 96.2951%
Source Step = 96.3378%
Source Step = 96.3805%
Source Step = 96.4232%
Source Step = 96.4659%
Source Step = 96.5086%
Source Step = 96.5513%
Source Step = 96.5941%
Source Step = 96.6368%
Source Step = 96.6795%
Source Step = 96.7222%
Source Step = 96.7649%
Source Step = 96.8076%
Source Step = 96.8503%
Source Step = 96.893%
Source Step = 96.9357%
Source Step = 96.9784%
Source Step = 97.0212%
Source Step = 97.0639%
Source Step = 97.1066%
Source Step = 97.1493%
Source Step = 97.192%
Source Step = 97.2347%
Source Step = 97.2774%
Source Step = 97.3201%
Source Step = 97.3628%
Source Step = 97.4055%
Source Step = 97.4483%
Source Step = 97.491%
Source Step = 97.5337%
Source Step = 97.5764%
Source Step = 97.6191%
Source Step = 97.6618%
Source Step = 97.7045%
Source Step = 97.7472%
Source Step = 97.7899%
Source Step = 97.8326%
Source Step = 97.8754%
Source Step = 97.9181%
Source Step = 97.9608%
Source Step = 98.0035%
Source Step = 98.0462%
Source Step = 98.0889%
Source Step = 98.1316%
Source Step = 98.1743%
Source Step = 98.217%
Source Step = 98.2597%
Source Step = 98.3025%
Source Step = 98.3452%
Source Step = 98.3879%
Source Step = 98.4306%
Source Step = 98.4733%
Source Step = 98.516%
Source Step = 98.5587%
Source Step = 98.6014%
Source Step = 98.6441%
Source Step = 98.6868%
Source Step = 98.7295%
Source Step = 98.7723%
Source Step = 98.815%
Source Step = 98.8577%
Source Step = 98.9004%
Source Step = 98.9431%
Source Step = 98.9858%
Source Step = 99.0285%
Source Step = 99.0712%
Source Step = 99.1139%
Source Step = 99.1566%
Source Step = 99.1994%
Source Step = 99.2421%
Source Step = 99.2848%
Source Step = 99.3275%
Source Step = 99.3702%
Source Step = 99.4129%
Source Step = 99.4556%
Source Step = 99.4983%
Source Step = 99.541%
Source Step = 99.5837%
Source Step = 99.6265%
Source Step = 99.6692%
Source Step = 99.7119%
Source Step = 99.7546%
Source Step = 99.7973%
Source Step = 99.84%
Source Step = 99.8827%
Source Step = 99.9254%
Source Step = 99.9681%
Source Step = 100%
Source Step = 100%
Source Step = 100%
Source Step = 100%
Source Step = 100%
Source Step = 100%
Source Step = 100%
Source Step = 100%
Source Step = 100%
Source Step = 100%
Source Step = 100%
Source Step = 100%
Source Step = 100%
Source Step = 100%
Source Step = 100%
Source Step = 100%
Source Step = 100%
Source Step = 100%
Source Step = 100%
Source Step = 100%
Source Step = 100%
Source Step = 100%
Source Step = 100%
Source Step = 100%
Source Step = 100%
Source Step = 100%
Source Step = 100%
Source Step = 100%
Source Step = 100%
Source Step = 100%
Source Step = 100%
Source Step = 100%
Source Step = 100%
Source Step = 100%
Source Step = 100%
Source Step = 100%
Source Step = 100%
Source Step = 100%
Source Step = 100%
Source Step = 100%
Source Step = 100%
Source Step = 100%
Source Step = 100%
Source Step = 100%
Source Step = 100%
Source Step = 100%
Source Step = 100%
Source Step = 100%
Source Step = 100%
Source Step = 100%
Source Step = 100%
Source Step = 100%
Source Step = 100%
Source Step = 100%
Source Step = 100%
Source Step = 100%
Source Step = 100%
Source Step = 100%
Source Step = 100%
Source Step = 100%
Source Step = 100%
Source Step = 100%
Source Step = 100%
Source Step = 100%
Source Step = 100%
Source Step = 100%
Source Step = 100%
Source Step = 100%
Source Step = 100%
Source Step = 100%
Source Step = 100%
Source Step = 100%
Source Step = 100%
Source Step = 100%
Source Step = 100%
Source Step = 100%
Source Step = 100%
Source Step = 100%
Source Step = 100%
Source Step = 100%
Source Step = 100%
Source Step = 100%
Source Step = 100%
Source Step = 100%
Source Step = 100%
Source Step = 100%
Source Step = 100%
Source Step = 100%
Source Step = 100%
Source Step = 100%
Source Step = 100%
Source Step = 100%
Source Step = 100%
Source Step = 100%
Source Step = 100%
Source Step = 100%
Source Step = 100%
Source Step = 100%
Source Step = 100%
Source Step = 100%
Source Step = 100%
Source Step = 100%
Source Step = 100%
Source Step = 100%
Source Step = 100%
Source Step = 100%
Source Step = 100%
Source Step = 100%
Source Step = 100%
Source Step = 100%
Source Step = 100%
Source Step = 100%
Source Step = 100%
Source Step = 100%
Source Step = 100%
Source Step = 100%
Source Step = 100%
Source Step = 100%
Source Step = 100%
Source Step = 100%
Source Step = 100%
Source Step = 100%
Source Step = 100%
Source Step = 100%
Source Step = 100%
Source Step = 100%
Source Step = 100%
Source Step = 100%
Source Step = 100%
Source Step = 100%
Source Step = 100%
Source Step = 100%
Source Step = 100%
Source Step = 100%
Source Step = 100%
Source Step = 100%
Source Step = 100%
Source Step = 100%
Source Step = 100%
Source Step = 100%
Source Step = 100%
Source Step = 100%
Source Step = 100%
Source Step = 100%
Source Step = 100%
Source Step = 100%
Source Step = 100%
Source Step = 100%
Source Step = 100%
Source Step = 100%
Source Step = 100%
Source Step = 100%
Source Step = 100%
Source Step = 100%
Source Step = 100%
Source Step = 100%
Source Step = 100%
Source Step = 100%
Source Step = 100%
Source Step = 100%
Source Step = 100%
Source Step = 100%
Source Step = 100%
Source Step = 100%
Source Step = 100%
Source Step = 100%
Source Step = 100%
Source Step = 100%
Source Step = 100%
Source Step = 100%
Source Step = 100%
Source Step = 100%
Source Step = 100%
Source Step = 100%
Source Step = 100%
Source Step = 100%
Source Step = 100%
Source Step = 100%
Source Step = 100%
Source Step = 100%
Source Step = 100%
Source Step = 100%
Source Step = 100%
Source Step = 100%
Source Step = 100%
Source Step = 100%
Source Step = 100%
Source Step = 100%
Source Step = 100%
Source Step = 100%
Source Step = 100%
Source Step = 100%
Source Step = 100%
Source Step = 100%
Source Step = 100%
Source Step = 100%
Source Step = 100%
Source Step = 100%
Source Step = 100%
Source Step = 100%
Source Step = 100%
Source Step = 100%
Source Step = 100%
Source Step = 100%
Source Step = 100%
Source Step = 100%
Source Step = 100%
Source Step = 100%
Source Step = 100%
Source Step = 100%
Source Step = 100%
Source Step = 100%
Source Step = 100%
Source Step = 100%
Source Step = 100%
Source Step = 100%
Source Step = 100%
Source Step = 100%
Source Step = 100%
Source Step = 100%
Source Step = 100%
Source Step = 100%
Source Step = 100%
Source Step = 100%
Source Step = 100%
Source Step = 100%
Source Step = 100%
Source Step = 100%
Source Step = 100%
Source Step = 100%
Source Step = 100%
Source Step = 100%
Source Step = 100%
Source Step = 100%
Source Step = 100%
Source Step = 100%
Source Step = 100%
Source Step = 100%
Source Step = 100%
Source Step = 100%
Source Step = 100%
Source Step = 100%
Source Step = 100%
Source Step = 100%
Source Step = 100%
Source Step = 100%
Source Step = 100%
Source Step = 100%
Source Step = 100%
Source Step = 100%
Source Step = 100%
Source Step = 100%
Source Step = 100%
Source Step = 100%
Source Step = 100%
Source Step = 100%
Source Step = 100%
Source Step = 100%
Source Step = 100%
Source Step = 100%
Source Step = 100%
Source Step = 100%
Source Step = 100%
Source Step = 100%
Source Step = 100%
Source Step = 100%
Source Step = 100%
Source Step = 100%
Source Step = 100%
Source Step = 100%
Source Step = 100%
Source Step = 100%
Source Step = 100%
Source Step = 100%
Source Step = 100%
Source Step = 100%
Source Step = 100%
Source Step = 100%
Source Step = 100%
Source Step = 100%
Source Step = 100%
Source Step = 100%
Source Step = 100%
Source Step = 100%
Source Step = 100%
Source Step = 100%
Source Step = 100%
Source Step = 100%
Source Step = 100%
Source Step = 100%
Source Step = 100%
Source Step = 100%
Source Step = 100%
Source Step = 100%
Source Step = 100%
Source Step = 100%
Source Step = 100%
Source Step = 100%
Source Step = 100%
Source Step = 100%
Source Step = 100%
Source Step = 100%
Source Step = 100%
Source Step = 100%
Source Step = 100%
Source Step = 100%
Source Step = 100%
Source Step = 100%
Source Step = 100%
Source Step = 100%
Source Step = 100%
Source Step = 100%
Source Step = 100%
Source Step = 100%
Source Step = 100%
Source Step = 100%
Source Step = 100%
Source Step = 100%
Source Step = 100%
Source Step = 100%
Source Step = 100%
Source Step = 100%
Source Step = 100%
Source Step = 100%
Source Step = 100%
Source Step = 100%
Source Step = 100%
Source Step = 100%
Source Step = 100%
Source Step = 100%
Source Step = 100%
Source Step = 100%
Source Step = 100%
Source Step = 100%
Source Step = 100%
Source Step = 100%
Source Step = 100%
Source Step = 100%
Source Step = 100%
Source Step = 100%
Source Step = 100%
Source Step = 100%
Source Step = 100%
Source Step = 100%
Source Step = 100%
Source Step = 100%
Source Step = 100%
Source Step = 100%
Source Step = 100%
Source Step = 100%
Source Step = 100%
Source Step = 100%
Source Step = 100%
Source Step = 100%
Source Step = 100%
Source Step = 100%
Source Step = 100%
Source Step = 100%
Source Step = 100%
Source Step = 100%
Source Step = 100%
Source Step = 100%
Source Step = 100%
Source Step = 100%
Source Step = 100%
Source Step = 100%
Source Step = 100%
Source Step = 100%
Source Step = 100%
Source Step = 100%
Source Step = 100%
Source Step = 100%
Source Step = 100%
Source Step = 100%
Source Step = 100%
Source Step = 100%
Source Step = 100%
Source Step = 100%
Source Step = 100%
Source Step = 100%
Source Step = 100%
Source Step = 100%
Source Step = 100%
Source Step = 100%
Source Step = 100%
Source Step = 100%
Source Step = 100%
Source Step = 100%
Source Step = 100%
Source Step = 100%
Source Step = 100%
Source Step = 100%
Source Step = 100%
Source Step = 100%
Source Step = 100%
Source Step = 100%
Source Step = 100%
Source Step = 100%
Source Step = 100%
Source Step = 100%
Source Step = 100%
Source Step = 100%
Source Step = 100%
Source Step = 100%
Source Step = 100%
Source Step = 100%
Source Step = 100%
Source Step = 100%
Source Step = 100%
Source Step = 100%
Source Step = 100%
Source Step = 100%
Source Step = 100%
Source Step = 100%
Source Step = 100%
Source Step = 100%
Source Step = 100%
Source Step = 100%
Source Step = 100%
Source Step = 100%
Source Step = 100%
Source Step = 100%
Source Step = 100%
Source Step = 100%
Source Step = 100%
Source Step = 100%
Source Step = 100%
Source Step = 100%
Source Step = 100%
Source Step = 100%
Source Step = 100%
Source Step = 100%
Source Step = 100%
Source Step = 100%
Source Step = 100%
Source Step = 100%
Source Step = 100%
Source Step = 100%
Source Step = 100%
Source Step = 100%
Source Step = 100%
Source Step = 100%
Source Step = 100%
Source Step = 100%
Source Step = 100%
Source Step = 100%
Source Step = 100%
Source Step = 100%
Source Step = 100%
Source Step = 100%
Source Step = 100%
Source Step = 100%
Source Step = 100%
Source Step = 100%
Source Step = 100%
Source Step = 100%
Source Step = 100%
Source Step = 100%
Source Step = 100%
Source Step = 100%
Source Step = 100%
Source Step = 100%
Source Step = 100%
Source Step = 100%
Source Step = 100%
Source Step = 100%
Source Step = 100%
Source Step = 100%
Source Step = 100%
Source Step = 100%
Source Step = 100%
Source Step = 100%
Source Step = 100%
Source Step = 100%
Source Step = 100%
Source Step = 100%
Source Step = 100%
Source Step = 100%
Source Step = 100%
Source Step = 100%
Source Step = 100%
Source Step = 100%
Source Step = 100%
Source Step = 100%
Source Step = 100%
Source Step = 100%
Source Step = 100%
Source Step = 100%
Source Step = 100%
Source Step = 100%
Source Step = 100%
Source Step = 100%
Source Step = 100%
Source Step = 100%
Source Step = 100%
Source Step = 100%
Source Step = 100%
Source Step = 100%
Source Step = 100%
Source Step = 100%
Source Step = 100%
Source Step = 100%
Source Step = 100%
Source Step = 100%
Source Step = 100%
Source Step = 100%
Source Step = 100%
Source Step = 100%
Source Step = 100%
Source Step = 100%
Source Step = 100%
Source Step = 100%
Source Step = 100%
Source Step = 100%
Source Step = 100%
Source Step = 100%
Source Step = 100%
Source Step = 100%
Source Step = 100%
Source Step = 100%
Source Step = 100%
Source Step = 100%
Source Step = 100%
Source Step = 100%
Source Step = 100%
Source Step = 100%
Source Step = 100%
Source Step = 100%
Source Step = 100%
Source Step = 100%
Source Step = 100%
Source Step = 100%
Source Step = 100%
Source Step = 100%
Source Step = 100%
Source Step = 100%
Source Step = 100%
Source Step = 100%
Source Step = 100%
Source Step = 100%
Source Step = 100%
Source Step = 100%
Source Step = 100%
Source Step = 100%
Source Step = 100%
Source Step = 100%
Source Step = 100%
Source Step = 100%
Source Step = 100%
Source Step = 100%
Source Step = 100%
Source Step = 100%
Source Step = 100%
Source Step = 100%
Source Step = 100%
Source Step = 100%
Source Step = 100%
Source Step = 100%
Source Step = 100%
Source Step = 100%
Source Step = 100%
Source Step = 100%
Source Step = 100%
Source Step = 100%
Source Step = 100%
Source Step = 100%
Source Step = 100%
Source Step = 100%
Source Step = 100%
Source Step = 100%
Source Step = 100%
Source Step = 100%
Source Step = 100%
Source Step = 100%
Source Step = 100%
Source Step = 100%
Source Step = 100%
Source Step = 100%
Source Step = 100%
Source Step = 100%
Source Step = 100%
Source Step = 100%
Source Step = 100%
Source Step = 100%
Source Step = 100%
Source Step = 100%
Source Step = 100%
Source Step = 100%
Source Step = 100%
Source Step = 100%
Source Step = 100%
Source Step = 100%
Source Step = 100%
Source Step = 100%
Source Step = 100%
Source Step = 100%
Source Step = 100%
Source Step = 100%
Source Step = 100%
Source Step = 100%
Source Step = 100%
Source Step = 100%
Source Step = 100%
Source Step = 100%
Source Step = 100%
Source Step = 100%
Source Step = 100%
Source Step = 100%
Source Step = 100%
Source Step = 100%
Source Step = 100%
Source Step = 100%
Source Step = 100%
Source Step = 100%
Source Step = 100%
Source Step = 100%
Source Step = 100%
Source Step = 100%
Source Step = 100%
Source Step = 100%
Source Step = 100%
Source Step = 100%
Source Step = 100%
Source Step = 100%
Source Step = 100%
Source Step = 100%
Source Step = 100%
Source Step = 100%
Source Step = 100%
Source Step = 100%
Source Step = 100%
Source Step = 100%
Source Step = 100%
Source Step = 100%
Source Step = 100%
Source Step = 100%
Source Step = 100%
Source Step = 100%
Source Step = 100%
Source Step = 100%
Source Step = 100%
Source Step = 100%
Source Step = 100%
Source Step = 100%
Source Step = 100%
Source Step = 100%
Source Step = 100%
Source stepping aborted.
Starting source stepping with srcstepmethod=1
Source Step = 3.0303%
Source Step = 33.3333%
Source Step = 63.6364%
Source Step = 93.9394%
Source Step = 96.9815%
Source Step = 97.0111%
Source Step = 97.0407%
Source Step = 97.0703%
Source Step = 97.0999%
Source Step = 97.1295%
Source Step = 97.1591%
Source Step = 97.1887%
Source Step = 97.2183%
Source Step = 97.2479%
Source Step = 97.2775%
Source Step = 97.3071%
Source Step = 97.3366%
Source Step = 97.3662%
Source Step = 97.3958%
Source Step = 97.4254%
Source Step = 97.455%
Source Step = 97.4846%
Source Step = 97.5142%
Source Step = 97.5438%
Source Step = 97.5734%
Source Step = 97.603%
Source Step = 97.6326%
Source Step = 97.6622%
Source Step = 97.6918%
Source Step = 97.7214%
Source Step = 97.7509%
Source Step = 97.7805%
Source Step = 97.8101%
Source Step = 97.8397%
Source Step = 97.8693%
Source Step = 97.8989%
Source Step = 97.9285%
Source Step = 97.9581%
Source Step = 97.9877%
Source Step = 98.0173%
Source Step = 98.0469%
Source Step = 98.0765%
Source Step = 98.1061%
Source Step = 98.1357%
Source Step = 98.1652%
Source Step = 98.1948%
Source Step = 98.2244%
Source Step = 98.254%
Source Step = 98.2836%
Source Step = 98.3132%
Source Step = 98.3428%
Source Step = 98.3724%
Source Step = 98.402%
Source Step = 98.4316%
Source Step = 98.4612%
Source Step = 98.4908%
Source Step = 98.5204%
Source Step = 98.55%
Source Step = 98.5795%
Source Step = 98.6091%
Source Step = 98.6387%
Source Step = 98.6683%
Source Step = 98.6979%
Source Step = 98.7275%
Source Step = 98.7571%
Source Step = 98.7867%
Source Step = 98.8163%
Source Step = 98.8459%
Source Step = 98.8755%
Source Step = 98.9051%
Source Step = 98.9347%
Source Step = 98.9643%
Source Step = 98.9938%
Source Step = 99.0234%
Source Step = 99.053%
Source Step = 99.0826%
Source Step = 99.1122%
Source Step = 99.1418%
Source Step = 99.1714%
Source Step = 99.201%
Source Step = 99.2306%
Source Step = 99.2602%
Source Step = 99.2898%
Source Step = 99.3194%
Source Step = 99.349%
Source Step = 99.3786%
Source Step = 99.4081%
Source Step = 99.4377%
Source Step = 99.4673%
Source Step = 99.4969%
Source Step = 99.5265%
Source Step = 99.5561%
Source Step = 99.5857%
Source Step = 99.6153%
Source Step = 99.6449%
Source Step = 99.6745%
Source Step = 99.7041%
Source Step = 99.7337%
Source Step = 99.7633%
Source Step = 99.7929%
Source Step = 99.8224%
Source Step = 99.852%
Source Step = 99.8816%
Source Step = 99.9112%
Source Step = 99.9408%
Source Step = 99.9704%
Source Step = 100%
Source Step = 100%
Source Step = 100%
Source Step = 100%
Source Step = 100%
Source Step = 100%
Source Step = 100%
Source Step = 100%
Source Step = 100%
Source Step = 100%
Source Step = 100%
Source Step = 100%
Source Step = 100%
Source Step = 100%
Source Step = 100%
Source Step = 100%
Source Step = 100%
Source Step = 100%
Source Step = 100%
Source Step = 100%
Source Step = 100%
Source Step = 100%
Source Step = 100%
Source Step = 100%
Source Step = 100%
Source Step = 100%
Source Step = 100%
Source Step = 100%
Source Step = 100%
Source Step = 100%
Source Step = 100%
Source Step = 100%
Source Step = 100%
Source Step = 100%
Source Step = 100%
Source Step = 100%
Source Step = 100%
Source Step = 100%
Source Step = 100%
Source Step = 100%
Source Step = 100%
Source Step = 100%
Source Step = 100%
Source Step = 100%
Source Step = 100%
Source Step = 100%
Source Step = 100%
Source Step = 100%
Source Step = 100%
Source Step = 100%
Source Step = 100%
Source Step = 100%
Source Step = 100%
Source Step = 100%
Source Step = 100%
Source Step = 100%
Source Step = 100%
Source Step = 100%
Source Step = 100%
Source Step = 100%
Source Step = 100%
Source Step = 100%
Source Step = 100%
Source Step = 100%
Source Step = 100%
Source Step = 100%
Source Step = 100%
Source Step = 100%
Source Step = 100%
Source Step = 100%
Source Step = 100%
Source Step = 100%
Source Step = 100%
Source Step = 100%
Source Step = 100%
Source Step = 100%
Source Step = 100%
Source Step = 100%
Source Step = 100%
Source Step = 100%
Source Step = 100%
Source Step = 100%
Source Step = 100%
Source Step = 100%
Source Step = 100%
Source Step = 100%
Source Step = 100%
Source Step = 100%
Source Step = 100%
Source Step = 100%
Source Step = 100%
Source Step = 100%
Source Step = 100%
Source Step = 100%
Source Step = 100%
Source Step = 100%
Source Step = 100%
Source Step = 100%
Source Step = 100%
Source Step = 100%
Source Step = 100%
Source Step = 100%
Source Step = 100%
Source Step = 100%
Source Step = 100%
Source Step = 100%
Source Step = 100%
Source Step = 100%
Source Step = 100%
Source Step = 100%
Source Step = 100%
Source Step = 100%
Source Step = 100%
Source Step = 100%
Source Step = 100%
Source Step = 100%
Source Step = 100%
Source Step = 100%
Source Step = 100%
Source Step = 100%
Source Step = 100%
Source Step = 100%
Source Step = 100%
Source Step = 100%
Source Step = 100%
Source Step = 100%
Source Step = 100%
Source Step = 100%
Source Step = 100%
Source Step = 100%
Source Step = 100%
Source Step = 100%
Source Step = 100%
Source Step = 100%
Source Step = 100%
Source Step = 100%
Source Step = 100%
Source Step = 100%
Source Step = 100%
Source Step = 100%
Source Step = 100%
Source Step = 100%
Source Step = 100%
Source Step = 100%
Source Step = 100%
Source Step = 100%
Source Step = 100%
Source Step = 100%
Source Step = 100%
Source Step = 100%
Source Step = 100%
Source Step = 100%
Source Step = 100%
Source Step = 100%
Source Step = 100%
Source Step = 100%
Source Step = 100%
Source Step = 100%
Source Step = 100%
Source Step = 100%
Source Step = 100%
Source Step = 100%
Source Step = 100%
Source Step = 100%
Source Step = 100%
Source Step = 100%
Source Step = 100%
Source Step = 100%
Source Step = 100%
Source Step = 100%
Source Step = 100%
Source Step = 100%
Source Step = 100%
Source Step = 100%
Source Step = 100%
Source Step = 100%
Source Step = 100%
Source Step = 100%
Source Step = 100%
Source Step = 100%
Source Step = 100%
Source Step = 100%
Source Step = 100%
Source Step = 100%
Source Step = 100%
Source Step = 100%
Source Step = 100%
Source Step = 100%
Source Step = 100%
Source Step = 100%
Source Step = 100%
Source Step = 100%
Source Step = 100%
Source Step = 100%
Source Step = 100%
Source Step = 100%
Source Step = 100%
Source Step = 100%
Source Step = 100%
Source Step = 100%
Source Step = 100%
Source Step = 100%
Source Step = 100%
Source Step = 100%
Source Step = 100%
Source Step = 100%
Source Step = 100%
Source Step = 100%
Source Step = 100%
Source Step = 100%
Source Step = 100%
Source Step = 100%
Source Step = 100%
Source Step = 100%
Source Step = 100%
Source Step = 100%
Source Step = 100%
Source Step = 100%
Source Step = 100%
Source Step = 100%
Source Step = 100%
Source Step = 100%
Source Step = 100%
Source Step = 100%
Source Step = 100%
Source Step = 100%
Source Step = 100%
Source Step = 100%
Source Step = 100%
Source Step = 100%
Source Step = 100%
Source Step = 100%
Source Step = 100%
Source Step = 100%
Source Step = 100%
Source Step = 100%
Source Step = 100%
Source Step = 100%
Source Step = 100%
Source Step = 100%
Source Step = 100%
Source Step = 100%
Source Step = 100%
Source stepping aborted.
Pseudo Transient failed in finding the operating point at 36.0808 µs.
Trouble finding operating point....skipping operating point for Transient analysis.
Changing Tseed to 9.76562e-10
Changing Tseed to 9.76562e-12
Changing Tseed to 9.76562e-09
Changing Tseed to 9.76562e-13
Changing Tseed to 9.76563e-08
Changing Tseed to 9.76563e-14
Changing Tseed to 9.76563e-07
Changing Tseed to 9.76562e-15
Changing Tseed to 9.76562e-06
Changing Tseed to 9.76562e-16
Changing Tseed to 9.76563e-05
Changing Tseed to 9.76562e-17
Heightened Def Con from 0 Changing Tseed to 1e-08
Changing Tseed to 1e-10
Changing Tseed to 1e-07
Changing Tseed to 1e-11
Changing Tseed to 1e-06
Changing Tseed to 1e-12
Changing Tseed to 1e-05
Changing Tseed to 1e-13
Changing Tseed to 0.0001
Changing Tseed to 1e-14
Changing Tseed to 0.001
Changing Tseed to 1e-15
+Changing Tseed to 1e-08
Changing Tseed to 1e-10
Changing Tseed to 1e-07
Changing Tseed to 1e-11
Changing Tseed to 1e-06
Changing Tseed to 1e-12
Changing Tseed to 1e-05
Changing Tseed to 1e-13
Changing Tseed to 0.0001
Changing Tseed to 1e-14
Changing Tseed to 0.001
Changing Tseed to 1e-15
+Changing Tseed to 1e-08
Changing Tseed to 1e-10
Changing Tseed to 1e-07
Changing Tseed to 1e-11
Changing Tseed to 1e-06
Changing Tseed to 1e-12
Changing Tseed to 1e-05
Changing Tseed to 1e-13
Changing Tseed to 0.0001
Changing Tseed to 1e-14
Changing Tseed to 0.001
Changing Tseed to 1e-15
+Singular matrix:  Check nodes u1:9 and nc_01
   Iteration No. 10
Fatal Error: Singular matrix:  check nodes u1:9 and nc_01
   Iteration No. 10

