Circuit: * D:\00 - ITBA\Electrónica 4\TPF\TP-FINAL\Simulation\V1\ref.asc

Direct Newton iteration for .op point succeeded.

Date: Wed Jul 19 17:22:01 2023
Total elapsed time: 0.099 seconds.

tnom = 27
temp = 27
method = modified trap
totiter = 2087
traniter = 2082
tranpoints = 1042
accept = 1042
rejected = 0
matrix size = 13
fillins = 8
solver = Normal
Avg thread counts: 2.3/3.6/3.6/2.3
Matrix Compiler1: 712 bytes object code size  0.6/0.5/[0.3]
Matrix Compiler2: 995 bytes object code size  0.3/0.5/[0.2]

