Circuit: * D:\00 - ITBA\Electrónica 4\TPF\TP-FINAL\Simulation\V1\sch.asc

WARNING: Node NC_03 is floating.

WARNING: Less than two connections to node nc_02.  This node is used by d1.
WARNING: Less than two connections to node nc_03.  This node is used by d1.
WARNING: Less than two connections to node fb.  This node is used by r6.
Direct Newton iteration for .op point succeeded.

Date: Wed Jul 19 17:39:33 2023
Total elapsed time: 0.181 seconds.

tnom = 27
temp = 27
method = modified trap
totiter = 2395
traniter = 2372
tranpoints = 1187
accept = 1103
rejected = 84
matrix size = 27
fillins = 14
solver = Normal
Avg thread counts: 2.2/3.3/3.3/2.2
Matrix Compiler1: 1.66 KB object code size  1.1/0.9/[0.3]
Matrix Compiler2: 2.12 KB object code size  0.7/1.3/[0.3]

