Circuit: * D:\00 - ITBA\Electrónica 4\TPF\TP-FINAL\Simulation\OTROS\OPTO+TL431+PWM\sch.asc

WARNING: Less than two connections to node fb.  This node is used by r5.
Direct Newton iteration for .op point succeeded.

Date: Thu Jul 20 12:37:16 2023
Total elapsed time: 0.156 seconds.

tnom = 27
temp = 27
method = modified trap
totiter = 2117
traniter = 2082
tranpoints = 1042
accept = 1042
rejected = 0
matrix size = 22
fillins = 8
solver = Normal
Avg thread counts: 2.3/3.6/3.6/2.3
Matrix Compiler1: 1.29 KB object code size  0.7/0.6/[0.3]
Matrix Compiler2: 1.76 KB object code size  0.5/0.6/[0.3]

