Circuit: * C:\Users\carlo\OneDrive\Escritorio\2023_1C\E4\TPs\TP-FINAL\Simulation\2 - Dos Flyback y FlipFlop\Draft2.asc

Direct Newton iteration for .op point succeeded.

Date: Tue Jul 18 21:57:13 2023
Total elapsed time: 0.130 seconds.

tnom = 27
temp = 27
method = modified trap
totiter = 2118
traniter = 2082
tranpoints = 1042
accept = 1042
rejected = 0
matrix size = 15
fillins = 0
solver = Normal
Matrix Compiler1: 952 bytes object code size  0.1/0.1/[0.1]
Matrix Compiler2: off  [0.1]/0.2/0.6

