Circuit: * C:\Users\carlo\OneDrive\Escritorio\2023_1C\E4\TPs\TP-FINAL\Simulation\2 - Dos Flyback y FlipFlop\Draft1.asc

WARNING: Less than two connections to node VFB.  This node is used by R_FBG.
Direct Newton iteration for .op point succeeded.

Date: Tue Jul 18 21:49:32 2023
Total elapsed time: 0.213 seconds.

tnom = 27
temp = 27
method = modified trap
totiter = 2116
traniter = 2082
tranpoints = 1042
accept = 1042
rejected = 0
matrix size = 23
fillins = 6
solver = Normal
Matrix Compiler1: 1.79 KB object code size  0.8/0.6/[0.2]
Matrix Compiler2: 2.02 KB object code size  0.4/1.2/[0.3]

